data_CONTCAR
_audit_creation_date              2022-02-10
_audit_creation_method            'Materials Studio'
_symmetry_space_group_name_H-M    'P1'
_symmetry_Int_Tables_number       1
_symmetry_cell_setting            triclinic
loop_
_symmetry_equiv_pos_as_xyz
  x,y,z
_cell_length_a                    11.7841
_cell_length_b                    13.0141
_cell_length_c                    25.6680
_cell_angle_alpha                 90.0000
_cell_angle_beta                  90.0000
_cell_angle_gamma                 90.0000
loop_
_atom_site_label
_atom_site_type_symbol
_atom_site_fract_x
_atom_site_fract_y
_atom_site_fract_z
_atom_site_U_iso_or_equiv
_atom_site_adp_type
_atom_site_occupancy
Ti1    Ti    0.12500   0.16866   0.04649   0.00000  Uiso   1.00
Ti2    Ti    0.12500   0.41866   0.16610   0.00000  Uiso   1.00
Ti3    Ti    0.12500   0.16866   0.31212   0.00000  Uiso   1.00
Ti4    Ti    0.12500   0.41866   0.42386   0.00000  Uiso   1.00
Ti5    Ti    0.00000   0.41866   0.04649   0.00000  Uiso   1.00
Ti6    Ti    0.00000   0.16866   0.17552   0.00000  Uiso   1.00
Ti7    Ti    0.00000   0.41866   0.29722   0.00000  Uiso   1.00
Ti8    Ti    0.00000   0.16866   0.44284   0.00000  Uiso   1.00
Ti9    Ti    0.37500   0.16866   0.04649   0.00000  Uiso   1.00
Ti10   Ti    0.37500   0.41866   0.16610   0.00000  Uiso   1.00
Ti11   Ti    0.37500   0.16866   0.31212   0.00000  Uiso   1.00
Ti12   Ti    0.37500   0.41866   0.42386   0.00000  Uiso   1.00
Ti13   Ti    0.25000   0.41866   0.04649   0.00000  Uiso   1.00
Ti14   Ti    0.25000   0.16866   0.17552   0.00000  Uiso   1.00
Ti15   Ti    0.25000   0.41866   0.29722   0.00000  Uiso   1.00
Ti16   Ti    0.25000   0.16866   0.44284   0.00000  Uiso   1.00
Ti17   Ti    0.12500   0.66866   0.04649   0.00000  Uiso   1.00
Ti18   Ti    0.12500   0.91866   0.16610   0.00000  Uiso   1.00
Ti19   Ti    0.12500   0.66866   0.31212   0.00000  Uiso   1.00
Ti20   Ti    0.12500   0.91866   0.42386   0.00000  Uiso   1.00
Ti21   Ti    0.00000   0.91866   0.04649   0.00000  Uiso   1.00
Ti22   Ti    0.00000   0.66866   0.17552   0.00000  Uiso   1.00
Ti23   Ti    0.00000   0.91866   0.29722   0.00000  Uiso   1.00
Ti24   Ti    0.00000   0.66866   0.44284   0.00000  Uiso   1.00
Ti25   Ti    0.37500   0.66866   0.04649   0.00000  Uiso   1.00
Ti26   Ti    0.37500   0.91866   0.16610   0.00000  Uiso   1.00
Ti27   Ti    0.37500   0.66866   0.31212   0.00000  Uiso   1.00
Ti28   Ti    0.37500   0.91866   0.42386   0.00000  Uiso   1.00
Ti29   Ti    0.25000   0.91866   0.04649   0.00000  Uiso   1.00
Ti30   Ti    0.25000   0.66866   0.17552   0.00000  Uiso   1.00
Ti31   Ti    0.25000   0.91866   0.29722   0.00000  Uiso   1.00
Ti32   Ti    0.25000   0.66866   0.44284   0.00000  Uiso   1.00
Ti33   Ti    0.62500   0.16866   0.04649   0.00000  Uiso   1.00
Ti34   Ti    0.62500   0.41866   0.16610   0.00000  Uiso   1.00
Ti35   Ti    0.62500   0.16866   0.31212   0.00000  Uiso   1.00
Ti36   Ti    0.62500   0.41866   0.42386   0.00000  Uiso   1.00
Ti37   Ti    0.50000   0.41866   0.04649   0.00000  Uiso   1.00
Ti38   Ti    0.50000   0.16866   0.17552   0.00000  Uiso   1.00
Ti39   Ti    0.50000   0.41866   0.29722   0.00000  Uiso   1.00
Ti40   Ti    0.50000   0.16866   0.44284   0.00000  Uiso   1.00
Ti41   Ti    0.87500   0.16866   0.04649   0.00000  Uiso   1.00
Ti42   Ti    0.87500   0.41866   0.16610   0.00000  Uiso   1.00
Ti43   Ti    0.87500   0.16866   0.31212   0.00000  Uiso   1.00
Ti44   Ti    0.87500   0.41866   0.42386   0.00000  Uiso   1.00
Ti45   Ti    0.75000   0.41866   0.04649   0.00000  Uiso   1.00
Ti46   Ti    0.75000   0.16866   0.17552   0.00000  Uiso   1.00
Ti47   Ti    0.75000   0.41866   0.29722   0.00000  Uiso   1.00
Ti48   Ti    0.75000   0.16866   0.44284   0.00000  Uiso   1.00
Ti49   Ti    0.62500   0.66866   0.04649   0.00000  Uiso   1.00
Ti50   Ti    0.62500   0.91866   0.16610   0.00000  Uiso   1.00
Ti51   Ti    0.62500   0.66866   0.31212   0.00000  Uiso   1.00
Ti52   Ti    0.62500   0.91866   0.42386   0.00000  Uiso   1.00
Ti53   Ti    0.50000   0.91866   0.04649   0.00000  Uiso   1.00
Ti54   Ti    0.50000   0.66866   0.17552   0.00000  Uiso   1.00
Ti55   Ti    0.50000   0.91866   0.29722   0.00000  Uiso   1.00
Ti56   Ti    0.50000   0.66866   0.44284   0.00000  Uiso   1.00
Ti57   Ti    0.87500   0.66866   0.04649   0.00000  Uiso   1.00
Ti58   Ti    0.87500   0.91866   0.16610   0.00000  Uiso   1.00
Ti59   Ti    0.87500   0.66866   0.31212   0.00000  Uiso   1.00
Ti60   Ti    0.87500   0.91866   0.42386   0.00000  Uiso   1.00
Ti61   Ti    0.75000   0.91866   0.04649   0.00000  Uiso   1.00
Ti62   Ti    0.75000   0.66866   0.17552   0.00000  Uiso   1.00
Ti63   Ti    0.75000   0.91866   0.29722   0.00000  Uiso   1.00
Ti64   Ti    0.75000   0.66866   0.44284   0.00000  Uiso   1.00
O65    O     0.12500   0.41866   0.00000   0.00000  Uiso   1.00
O66    O     0.12500   0.16866   0.12004   0.00000  Uiso   1.00
O67    O     0.12500   0.41866   0.25217   0.00000  Uiso   1.00
O68    O     0.12500   0.16866   0.38351   0.00000  Uiso   1.00
O69    O     0.12500   0.41866   0.09297   0.00000  Uiso   1.00
O70    O     0.12500   0.16866   0.22160   0.00000  Uiso   1.00
O71    O     0.12500   0.41866   0.35352   0.00000  Uiso   1.00
O72    O     0.12500   0.16866   0.48500   0.00000  Uiso   1.00
O73    O     0.00000   0.26626   0.04649   0.00000  Uiso   1.00
O74    O     0.00000   0.01599   0.17226   0.00000  Uiso   1.00
O75    O     0.00000   0.26730   0.30370   0.00000  Uiso   1.00
O76    O     0.00000   0.01309   0.43839   0.00000  Uiso   1.00
O77    O     0.00000   0.07106   0.04649   0.00000  Uiso   1.00
O78    O     0.00000   0.32133   0.17226   0.00000  Uiso   1.00
O79    O     0.00000   0.07002   0.30370   0.00000  Uiso   1.00
O80    O     0.00000   0.32423   0.43839   0.00000  Uiso   1.00
O81    O     0.37500   0.41866   0.00000   0.00000  Uiso   1.00
O82    O     0.37500   0.16866   0.12004   0.00000  Uiso   1.00
O83    O     0.37500   0.41866   0.25217   0.00000  Uiso   1.00
O84    O     0.37500   0.16866   0.38351   0.00000  Uiso   1.00
O85    O     0.37500   0.41866   0.09297   0.00000  Uiso   1.00
O86    O     0.37500   0.16866   0.22160   0.00000  Uiso   1.00
O87    O     0.37500   0.41866   0.35352   0.00000  Uiso   1.00
O88    O     0.37500   0.16866   0.48500   0.00000  Uiso   1.00
O89    O     0.25000   0.26626   0.04649   0.00000  Uiso   1.00
O90    O     0.25000   0.01599   0.17226   0.00000  Uiso   1.00
O91    O     0.25000   0.26730   0.30370   0.00000  Uiso   1.00
O92    O     0.25000   0.01309   0.43839   0.00000  Uiso   1.00
O93    O     0.25000   0.07106   0.04649   0.00000  Uiso   1.00
O94    O     0.25000   0.32133   0.17226   0.00000  Uiso   1.00
O95    O     0.25000   0.07002   0.30370   0.00000  Uiso   1.00
O96    O     0.25000   0.32423   0.43839   0.00000  Uiso   1.00
O97    O     0.12500   0.91866   0.00000   0.00000  Uiso   1.00
O98    O     0.12500   0.66866   0.12004   0.00000  Uiso   1.00
O99    O     0.12500   0.91866   0.25217   0.00000  Uiso   1.00
O100   O     0.12500   0.66866   0.38351   0.00000  Uiso   1.00
O101   O     0.12500   0.91866   0.09297   0.00000  Uiso   1.00
O102   O     0.12500   0.66866   0.22160   0.00000  Uiso   1.00
O103   O     0.12500   0.91866   0.35352   0.00000  Uiso   1.00
O104   O     0.12500   0.66866   0.48500   0.00000  Uiso   1.00
O105   O     0.00000   0.76626   0.04649   0.00000  Uiso   1.00
O106   O     0.00000   0.51599   0.17226   0.00000  Uiso   1.00
O107   O     0.00000   0.76730   0.30370   0.00000  Uiso   1.00
O108   O     0.00000   0.51309   0.43839   0.00000  Uiso   1.00
O109   O     0.00000   0.57106   0.04649   0.00000  Uiso   1.00
O110   O     0.00000   0.82133   0.17226   0.00000  Uiso   1.00
O111   O     0.00000   0.57002   0.30370   0.00000  Uiso   1.00
O112   O     0.00000   0.82423   0.43839   0.00000  Uiso   1.00
O113   O     0.37500   0.91866   0.00000   0.00000  Uiso   1.00
O114   O     0.37500   0.66866   0.12004   0.00000  Uiso   1.00
O115   O     0.37500   0.91866   0.25217   0.00000  Uiso   1.00
O116   O     0.37500   0.66866   0.38351   0.00000  Uiso   1.00
O117   O     0.37500   0.91866   0.09297   0.00000  Uiso   1.00
O118   O     0.37500   0.66866   0.22160   0.00000  Uiso   1.00
O119   O     0.37500   0.91866   0.35352   0.00000  Uiso   1.00
O120   O     0.37500   0.66866   0.48500   0.00000  Uiso   1.00
O121   O     0.25000   0.76626   0.04649   0.00000  Uiso   1.00
O122   O     0.25000   0.51599   0.17226   0.00000  Uiso   1.00
O123   O     0.25000   0.76730   0.30370   0.00000  Uiso   1.00
O124   O     0.25000   0.51309   0.43839   0.00000  Uiso   1.00
O125   O     0.25000   0.57106   0.04649   0.00000  Uiso   1.00
O126   O     0.25000   0.82133   0.17226   0.00000  Uiso   1.00
O127   O     0.25000   0.57002   0.30370   0.00000  Uiso   1.00
O128   O     0.25000   0.82423   0.43839   0.00000  Uiso   1.00
O129   O     0.62500   0.41866   0.00000   0.00000  Uiso   1.00
O130   O     0.62500   0.16866   0.12004   0.00000  Uiso   1.00
O131   O     0.62500   0.41866   0.25217   0.00000  Uiso   1.00
O132   O     0.62500   0.16866   0.38351   0.00000  Uiso   1.00
O133   O     0.62500   0.41866   0.09297   0.00000  Uiso   1.00
O134   O     0.62500   0.16866   0.22160   0.00000  Uiso   1.00
O135   O     0.62500   0.41866   0.35352   0.00000  Uiso   1.00
O136   O     0.62500   0.16866   0.48500   0.00000  Uiso   1.00
O137   O     0.50000   0.26626   0.04649   0.00000  Uiso   1.00
O138   O     0.50000   0.01599   0.17226   0.00000  Uiso   1.00
O139   O     0.50000   0.26730   0.30370   0.00000  Uiso   1.00
O140   O     0.50000   0.01309   0.43839   0.00000  Uiso   1.00
O141   O     0.50000   0.07106   0.04649   0.00000  Uiso   1.00
O142   O     0.50000   0.32133   0.17226   0.00000  Uiso   1.00
O143   O     0.50000   0.07002   0.30370   0.00000  Uiso   1.00
O144   O     0.50000   0.32423   0.43839   0.00000  Uiso   1.00
O145   O     0.87500   0.41866   0.00000   0.00000  Uiso   1.00
O146   O     0.87500   0.16866   0.12004   0.00000  Uiso   1.00
O147   O     0.87500   0.41866   0.25217   0.00000  Uiso   1.00
O148   O     0.87500   0.16866   0.38351   0.00000  Uiso   1.00
O149   O     0.87500   0.41866   0.09297   0.00000  Uiso   1.00
O150   O     0.87500   0.16866   0.22160   0.00000  Uiso   1.00
O151   O     0.87500   0.41866   0.35352   0.00000  Uiso   1.00
O152   O     0.87500   0.16866   0.48500   0.00000  Uiso   1.00
O153   O     0.75000   0.26626   0.04649   0.00000  Uiso   1.00
O154   O     0.75000   0.01599   0.17226   0.00000  Uiso   1.00
O155   O     0.75000   0.26730   0.30370   0.00000  Uiso   1.00
O156   O     0.75000   0.01309   0.43839   0.00000  Uiso   1.00
O157   O     0.75000   0.07106   0.04649   0.00000  Uiso   1.00
O158   O     0.75000   0.32133   0.17226   0.00000  Uiso   1.00
O159   O     0.75000   0.07002   0.30370   0.00000  Uiso   1.00
O160   O     0.75000   0.32423   0.43839   0.00000  Uiso   1.00
O161   O     0.62500   0.91866   0.00000   0.00000  Uiso   1.00
O162   O     0.62500   0.66866   0.12004   0.00000  Uiso   1.00
O163   O     0.62500   0.91866   0.25217   0.00000  Uiso   1.00
O164   O     0.62500   0.66866   0.38351   0.00000  Uiso   1.00
O165   O     0.62500   0.91866   0.09297   0.00000  Uiso   1.00
O166   O     0.62500   0.66866   0.22160   0.00000  Uiso   1.00
O167   O     0.62500   0.91866   0.35352   0.00000  Uiso   1.00
O168   O     0.62500   0.66866   0.48500   0.00000  Uiso   1.00
O169   O     0.50000   0.76626   0.04649   0.00000  Uiso   1.00
O170   O     0.50000   0.51599   0.17226   0.00000  Uiso   1.00
O171   O     0.50000   0.76730   0.30370   0.00000  Uiso   1.00
O172   O     0.50000   0.51309   0.43839   0.00000  Uiso   1.00
O173   O     0.50000   0.57106   0.04649   0.00000  Uiso   1.00
O174   O     0.50000   0.82133   0.17226   0.00000  Uiso   1.00
O175   O     0.50000   0.57002   0.30370   0.00000  Uiso   1.00
O176   O     0.50000   0.82423   0.43839   0.00000  Uiso   1.00
O177   O     0.87500   0.91866   0.00000   0.00000  Uiso   1.00
O178   O     0.87500   0.66866   0.12004   0.00000  Uiso   1.00
O179   O     0.87500   0.91866   0.25217   0.00000  Uiso   1.00
O180   O     0.87500   0.66866   0.38351   0.00000  Uiso   1.00
O181   O     0.87500   0.91866   0.09297   0.00000  Uiso   1.00
O182   O     0.87500   0.66866   0.22160   0.00000  Uiso   1.00
O183   O     0.87500   0.91866   0.35352   0.00000  Uiso   1.00
O184   O     0.87500   0.66866   0.48500   0.00000  Uiso   1.00
O185   O     0.75000   0.76626   0.04649   0.00000  Uiso   1.00
O186   O     0.75000   0.51599   0.17226   0.00000  Uiso   1.00
O187   O     0.75000   0.76730   0.30370   0.00000  Uiso   1.00
O188   O     0.75000   0.51309   0.43839   0.00000  Uiso   1.00
O189   O     0.75000   0.57106   0.04649   0.00000  Uiso   1.00
O190   O     0.75000   0.82133   0.17226   0.00000  Uiso   1.00
O191   O     0.75000   0.57002   0.30370   0.00000  Uiso   1.00
O192   O     0.75000   0.82423   0.43839   0.00000  Uiso   1.00
O193   O     0.87198   0.41696   0.50176   0.00000  Uiso   1.00
O194   O     0.78154   0.42356   0.54162   0.00000  Uiso   1.00
H195   H     0.77689   0.44360   0.58361   0.00000  Uiso   1.00
loop_
_geom_bond_atom_site_label_1
_geom_bond_atom_site_label_2
_geom_bond_distance
_geom_bond_site_symmetry_2
_ccdc_geom_bond_type
Ti1    Ti9     2.946   .     S
Ti1    Ti41    2.946   1_455 S
Ti1    O66     1.888   .     S
Ti1    O73     1.945   .     S
Ti1    O77     1.945   .     S
Ti1    O89     1.945   .     S
Ti1    O93     1.945   .     S
Ti2    Ti10    2.946   .     S
Ti2    Ti42    2.946   1_455 S
Ti2    O67     2.209   .     S
Ti2    O69     1.877   .     S
Ti2    O78     1.949   .     S
Ti2    O94     1.949   .     S
Ti2    O106    1.949   .     S
Ti2    O122    1.949   .     S
Ti3    Ti11    2.946   .     S
Ti3    Ti43    2.946   1_455 S
Ti3    O68     1.832   .     S
Ti3    O70     2.324   .     S
Ti3    O75     1.966   .     S
Ti3    O79     1.966   .     S
Ti3    O91     1.966   .     S
Ti3    O95     1.966   .     S
Ti4    Ti12    2.946   .     S
Ti4    Ti44    2.946   1_455 S
Ti4    O71     1.805   .     S
Ti4    O80     1.954   .     S
Ti4    O96     1.954   .     S
Ti4    O108    1.954   .     S
Ti4    O124    1.954   .     S
Ti5    Ti13    2.946   .     S
Ti5    Ti45    2.946   1_455 S
Ti5    O65     1.896   .     S
Ti5    O69     1.896   .     S
Ti5    O73     1.983   .     S
Ti5    O109    1.983   .     S
Ti5    O145    1.896   1_455 S
Ti5    O149    1.896   1_455 S
Ti6    Ti14    2.946   .     S
Ti6    Ti46    2.946   1_455 S
Ti6    O66     2.049   .     S
Ti6    O70     1.889   .     S
Ti6    O74     1.989   .     S
Ti6    O78     1.989   .     S
Ti6    O146    2.049   1_455 S
Ti6    O150    1.889   1_455 S
Ti7    Ti15    2.946   .     S
Ti7    Ti47    2.946   1_455 S
Ti7    O67     1.873   .     S
Ti7    O71     2.064   .     S
Ti7    O75     1.977   .     S
Ti7    O111    1.977   .     S
Ti7    O147    1.873   1_455 S
Ti7    O151    2.064   1_455 S
Ti8    Ti16    2.946   .     S
Ti8    Ti48    2.946   1_455 S
Ti8    O68     2.119   .     S
Ti8    O72     1.828   .     S
Ti8    O76     2.028   .     S
Ti8    O80     2.028   .     S
Ti8    O148    2.119   1_455 S
Ti8    O152    1.828   1_455 S
Ti9    Ti33    2.946   .     S
Ti9    O82     1.888   .     S
Ti9    O89     1.945   .     S
Ti9    O93     1.945   .     S
Ti9    O137    1.945   .     S
Ti9    O141    1.945   .     S
Ti10   Ti34    2.946   .     S
Ti10   O83     2.209   .     S
Ti10   O85     1.877   .     S
Ti10   O94     1.949   .     S
Ti10   O122    1.949   .     S
Ti10   O142    1.949   .     S
Ti10   O170    1.949   .     S
Ti11   Ti35    2.946   .     S
Ti11   O84     1.832   .     S
Ti11   O86     2.324   .     S
Ti11   O91     1.966   .     S
Ti11   O95     1.966   .     S
Ti11   O139    1.966   .     S
Ti11   O143    1.966   .     S
Ti12   Ti36    2.946   .     S
Ti12   O87     1.805   .     S
Ti12   O96     1.954   .     S
Ti12   O124    1.954   .     S
Ti12   O144    1.954   .     S
Ti12   O172    1.954   .     S
Ti13   Ti37    2.946   .     S
Ti13   O65     1.896   .     S
Ti13   O69     1.896   .     S
Ti13   O81     1.896   .     S
Ti13   O85     1.896   .     S
Ti13   O89     1.983   .     S
Ti13   O125    1.983   .     S
Ti14   Ti38    2.946   .     S
Ti14   O66     2.049   .     S
Ti14   O70     1.889   .     S
Ti14   O82     2.049   .     S
Ti14   O86     1.889   .     S
Ti14   O90     1.989   .     S
Ti14   O94     1.989   .     S
Ti15   Ti39    2.946   .     S
Ti15   O67     1.873   .     S
Ti15   O71     2.064   .     S
Ti15   O83     1.873   .     S
Ti15   O87     2.064   .     S
Ti15   O91     1.977   .     S
Ti15   O127    1.977   .     S
Ti16   Ti40    2.946   .     S
Ti16   O68     2.119   .     S
Ti16   O72     1.828   .     S
Ti16   O84     2.119   .     S
Ti16   O88     1.828   .     S
Ti16   O92     2.028   .     S
Ti16   O96     2.028   .     S
Ti17   Ti25    2.946   .     S
Ti17   Ti57    2.946   1_455 S
Ti17   O98     1.888   .     S
Ti17   O105    1.945   .     S
Ti17   O109    1.945   .     S
Ti17   O121    1.945   .     S
Ti17   O125    1.945   .     S
Ti18   Ti26    2.946   .     S
Ti18   Ti58    2.946   1_455 S
Ti18   O74     1.949   1_565 S
Ti18   O90     1.949   1_565 S
Ti18   O99     2.209   .     S
Ti18   O101    1.877   .     S
Ti18   O110    1.949   .     S
Ti18   O126    1.949   .     S
Ti19   Ti27    2.946   .     S
Ti19   Ti59    2.946   1_455 S
Ti19   O100    1.832   .     S
Ti19   O102    2.324   .     S
Ti19   O107    1.966   .     S
Ti19   O111    1.966   .     S
Ti19   O123    1.966   .     S
Ti19   O127    1.966   .     S
Ti20   Ti28    2.946   .     S
Ti20   Ti60    2.946   1_455 S
Ti20   O76     1.954   1_565 S
Ti20   O92     1.954   1_565 S
Ti20   O103    1.805   .     S
Ti20   O112    1.954   .     S
Ti20   O128    1.954   .     S
Ti21   Ti29    2.946   .     S
Ti21   Ti61    2.946   1_455 S
Ti21   O77     1.983   1_565 S
Ti21   O97     1.896   .     S
Ti21   O101    1.896   .     S
Ti21   O105    1.983   .     S
Ti21   O177    1.896   1_455 S
Ti21   O181    1.896   1_455 S
Ti22   Ti30    2.946   .     S
Ti22   Ti62    2.946   1_455 S
Ti22   O98     2.049   .     S
Ti22   O102    1.889   .     S
Ti22   O106    1.989   .     S
Ti22   O110    1.989   .     S
Ti22   O178    2.049   1_455 S
Ti22   O182    1.889   1_455 S
Ti23   Ti31    2.946   .     S
Ti23   Ti63    2.946   1_455 S
Ti23   O79     1.977   1_565 S
Ti23   O99     1.873   .     S
Ti23   O103    2.064   .     S
Ti23   O107    1.977   .     S
Ti23   O179    1.873   1_455 S
Ti23   O183    2.064   1_455 S
Ti24   Ti32    2.946   .     S
Ti24   Ti64    2.946   1_455 S
Ti24   O100    2.119   .     S
Ti24   O104    1.828   .     S
Ti24   O108    2.028   .     S
Ti24   O112    2.028   .     S
Ti24   O180    2.119   1_455 S
Ti24   O184    1.828   1_455 S
Ti25   Ti49    2.946   .     S
Ti25   O114    1.888   .     S
Ti25   O121    1.945   .     S
Ti25   O125    1.945   .     S
Ti25   O169    1.945   .     S
Ti25   O173    1.945   .     S
Ti26   Ti50    2.946   .     S
Ti26   O90     1.949   1_565 S
Ti26   O115    2.209   .     S
Ti26   O117    1.877   .     S
Ti26   O126    1.949   .     S
Ti26   O138    1.949   1_565 S
Ti26   O174    1.949   .     S
Ti27   Ti51    2.946   .     S
Ti27   O116    1.832   .     S
Ti27   O118    2.324   .     S
Ti27   O123    1.966   .     S
Ti27   O127    1.966   .     S
Ti27   O171    1.966   .     S
Ti27   O175    1.966   .     S
Ti28   Ti52    2.946   .     S
Ti28   O92     1.954   1_565 S
Ti28   O119    1.805   .     S
Ti28   O128    1.954   .     S
Ti28   O140    1.954   1_565 S
Ti28   O176    1.954   .     S
Ti29   Ti53    2.946   .     S
Ti29   O93     1.983   1_565 S
Ti29   O97     1.896   .     S
Ti29   O101    1.896   .     S
Ti29   O113    1.896   .     S
Ti29   O117    1.896   .     S
Ti29   O121    1.983   .     S
Ti30   Ti54    2.946   .     S
Ti30   O98     2.049   .     S
Ti30   O102    1.889   .     S
Ti30   O114    2.049   .     S
Ti30   O118    1.889   .     S
Ti30   O122    1.989   .     S
Ti30   O126    1.989   .     S
Ti31   Ti55    2.946   .     S
Ti31   O95     1.977   1_565 S
Ti31   O99     1.873   .     S
Ti31   O103    2.064   .     S
Ti31   O115    1.873   .     S
Ti31   O119    2.064   .     S
Ti31   O123    1.977   .     S
Ti32   Ti56    2.946   .     S
Ti32   O100    2.119   .     S
Ti32   O104    1.828   .     S
Ti32   O116    2.119   .     S
Ti32   O120    1.828   .     S
Ti32   O124    2.028   .     S
Ti32   O128    2.028   .     S
Ti33   Ti41    2.946   .     S
Ti33   O130    1.888   .     S
Ti33   O137    1.945   .     S
Ti33   O141    1.945   .     S
Ti33   O153    1.945   .     S
Ti33   O157    1.945   .     S
Ti34   Ti42    2.946   .     S
Ti34   O131    2.209   .     S
Ti34   O133    1.877   .     S
Ti34   O142    1.949   .     S
Ti34   O158    1.949   .     S
Ti34   O170    1.949   .     S
Ti34   O186    1.949   .     S
Ti35   Ti43    2.946   .     S
Ti35   O132    1.832   .     S
Ti35   O134    2.324   .     S
Ti35   O139    1.966   .     S
Ti35   O143    1.966   .     S
Ti35   O155    1.966   .     S
Ti35   O159    1.966   .     S
Ti36   Ti44    2.946   .     S
Ti36   O135    1.805   .     S
Ti36   O144    1.954   .     S
Ti36   O160    1.954   .     S
Ti36   O172    1.954   .     S
Ti36   O188    1.954   .     S
Ti37   Ti45    2.946   .     S
Ti37   O81     1.896   .     S
Ti37   O85     1.896   .     S
Ti37   O129    1.896   .     S
Ti37   O133    1.896   .     S
Ti37   O137    1.983   .     S
Ti37   O173    1.983   .     S
Ti38   Ti46    2.946   .     S
Ti38   O82     2.049   .     S
Ti38   O86     1.889   .     S
Ti38   O130    2.049   .     S
Ti38   O134    1.889   .     S
Ti38   O138    1.989   .     S
Ti38   O142    1.989   .     S
Ti39   Ti47    2.946   .     S
Ti39   O83     1.873   .     S
Ti39   O87     2.064   .     S
Ti39   O131    1.873   .     S
Ti39   O135    2.064   .     S
Ti39   O139    1.977   .     S
Ti39   O175    1.977   .     S
Ti40   Ti48    2.946   .     S
Ti40   O84     2.119   .     S
Ti40   O88     1.828   .     S
Ti40   O132    2.119   .     S
Ti40   O136    1.828   .     S
Ti40   O140    2.028   .     S
Ti40   O144    2.028   .     S
Ti41   Ti1     2.946   1_655 S
Ti41   O73     1.945   1_655 S
Ti41   O77     1.945   1_655 S
Ti41   O146    1.888   .     S
Ti41   O153    1.945   .     S
Ti41   O157    1.945   .     S
Ti42   Ti2     2.946   1_655 S
Ti42   O78     1.949   1_655 S
Ti42   O106    1.949   1_655 S
Ti42   O147    2.209   .     S
Ti42   O149    1.877   .     S
Ti42   O158    1.949   .     S
Ti42   O186    1.949   .     S
Ti43   Ti3     2.946   1_655 S
Ti43   O75     1.966   1_655 S
Ti43   O79     1.966   1_655 S
Ti43   O148    1.832   .     S
Ti43   O150    2.324   .     S
Ti43   O155    1.966   .     S
Ti43   O159    1.966   .     S
Ti44   Ti4     2.946   1_655 S
Ti44   O80     1.954   1_655 S
Ti44   O108    1.954   1_655 S
Ti44   O151    1.805   .     S
Ti44   O160    1.954   .     S
Ti44   O188    1.954   .     S
Ti44   O193    2.000   .     S
Ti45   Ti5     2.946   1_655 S
Ti45   O129    1.896   .     S
Ti45   O133    1.896   .     S
Ti45   O145    1.896   .     S
Ti45   O149    1.896   .     S
Ti45   O153    1.983   .     S
Ti45   O189    1.983   .     S
Ti46   Ti6     2.946   1_655 S
Ti46   O130    2.049   .     S
Ti46   O134    1.889   .     S
Ti46   O146    2.049   .     S
Ti46   O150    1.889   .     S
Ti46   O154    1.989   .     S
Ti46   O158    1.989   .     S
Ti47   Ti7     2.946   1_655 S
Ti47   O131    1.873   .     S
Ti47   O135    2.064   .     S
Ti47   O147    1.873   .     S
Ti47   O151    2.064   .     S
Ti47   O155    1.977   .     S
Ti47   O191    1.977   .     S
Ti48   Ti8     2.946   1_655 S
Ti48   O132    2.119   .     S
Ti48   O136    1.828   .     S
Ti48   O148    2.119   .     S
Ti48   O152    1.828   .     S
Ti48   O156    2.028   .     S
Ti48   O160    2.028   .     S
Ti49   Ti57    2.946   .     S
Ti49   O162    1.888   .     S
Ti49   O169    1.945   .     S
Ti49   O173    1.945   .     S
Ti49   O185    1.945   .     S
Ti49   O189    1.945   .     S
Ti50   Ti58    2.946   .     S
Ti50   O138    1.949   1_565 S
Ti50   O154    1.949   1_565 S
Ti50   O163    2.209   .     S
Ti50   O165    1.877   .     S
Ti50   O174    1.949   .     S
Ti50   O190    1.949   .     S
Ti51   Ti59    2.946   .     S
Ti51   O164    1.832   .     S
Ti51   O166    2.324   .     S
Ti51   O171    1.966   .     S
Ti51   O175    1.966   .     S
Ti51   O187    1.966   .     S
Ti51   O191    1.966   .     S
Ti52   Ti60    2.946   .     S
Ti52   O140    1.954   1_565 S
Ti52   O156    1.954   1_565 S
Ti52   O167    1.805   .     S
Ti52   O176    1.954   .     S
Ti52   O192    1.954   .     S
Ti53   Ti61    2.946   .     S
Ti53   O113    1.896   .     S
Ti53   O117    1.896   .     S
Ti53   O141    1.983   1_565 S
Ti53   O161    1.896   .     S
Ti53   O165    1.896   .     S
Ti53   O169    1.983   .     S
Ti54   Ti62    2.946   .     S
Ti54   O114    2.049   .     S
Ti54   O118    1.889   .     S
Ti54   O162    2.049   .     S
Ti54   O166    1.889   .     S
Ti54   O170    1.989   .     S
Ti54   O174    1.989   .     S
Ti55   Ti63    2.946   .     S
Ti55   O115    1.873   .     S
Ti55   O119    2.064   .     S
Ti55   O143    1.977   1_565 S
Ti55   O163    1.873   .     S
Ti55   O167    2.064   .     S
Ti55   O171    1.977   .     S
Ti56   Ti64    2.946   .     S
Ti56   O116    2.119   .     S
Ti56   O120    1.828   .     S
Ti56   O164    2.119   .     S
Ti56   O168    1.828   .     S
Ti56   O172    2.028   .     S
Ti56   O176    2.028   .     S
Ti57   Ti17    2.946   1_655 S
Ti57   O105    1.945   1_655 S
Ti57   O109    1.945   1_655 S
Ti57   O178    1.888   .     S
Ti57   O185    1.945   .     S
Ti57   O189    1.945   .     S
Ti58   Ti18    2.946   1_655 S
Ti58   O74     1.949   1_665 S
Ti58   O110    1.949   1_655 S
Ti58   O154    1.949   1_565 S
Ti58   O179    2.209   .     S
Ti58   O181    1.877   .     S
Ti58   O190    1.949   .     S
Ti59   Ti19    2.946   1_655 S
Ti59   O107    1.966   1_655 S
Ti59   O111    1.966   1_655 S
Ti59   O180    1.832   .     S
Ti59   O182    2.324   .     S
Ti59   O187    1.966   .     S
Ti59   O191    1.966   .     S
Ti60   Ti20    2.946   1_655 S
Ti60   O76     1.954   1_665 S
Ti60   O112    1.954   1_655 S
Ti60   O156    1.954   1_565 S
Ti60   O183    1.805   .     S
Ti60   O192    1.954   .     S
Ti61   Ti21    2.946   1_655 S
Ti61   O157    1.983   1_565 S
Ti61   O161    1.896   .     S
Ti61   O165    1.896   .     S
Ti61   O177    1.896   .     S
Ti61   O181    1.896   .     S
Ti61   O185    1.983   .     S
Ti62   Ti22    2.946   1_655 S
Ti62   O162    2.049   .     S
Ti62   O166    1.889   .     S
Ti62   O178    2.049   .     S
Ti62   O182    1.889   .     S
Ti62   O186    1.989   .     S
Ti62   O190    1.989   .     S
Ti63   Ti23    2.946   1_655 S
Ti63   O159    1.977   1_565 S
Ti63   O163    1.873   .     S
Ti63   O167    2.064   .     S
Ti63   O179    1.873   .     S
Ti63   O183    2.064   .     S
Ti63   O187    1.977   .     S
Ti64   Ti24    2.946   1_655 S
Ti64   O164    2.119   .     S
Ti64   O168    1.828   .     S
Ti64   O180    2.119   .     S
Ti64   O184    1.828   .     S
Ti64   O188    2.028   .     S
Ti64   O192    2.028   .     S
O73    Ti41    1.945   1_455 S
O74    Ti58    1.949   1_445 S
O74    Ti18    1.949   1_545 S
O75    Ti43    1.966   1_455 S
O76    Ti60    1.954   1_445 S
O76    Ti20    1.954   1_545 S
O77    Ti41    1.945   1_455 S
O77    Ti21    1.983   1_545 S
O78    Ti42    1.949   1_455 S
O79    Ti43    1.966   1_455 S
O79    Ti23    1.977   1_545 S
O80    Ti44    1.954   1_455 S
O90    Ti18    1.949   1_545 S
O90    Ti26    1.949   1_545 S
O92    Ti20    1.954   1_545 S
O92    Ti28    1.954   1_545 S
O93    Ti29    1.983   1_545 S
O95    Ti31    1.977   1_545 S
O105   Ti57    1.945   1_455 S
O106   Ti42    1.949   1_455 S
O107   Ti59    1.966   1_455 S
O108   Ti44    1.954   1_455 S
O109   Ti57    1.945   1_455 S
O110   Ti58    1.949   1_455 S
O111   Ti59    1.966   1_455 S
O112   Ti60    1.954   1_455 S
O138   Ti26    1.949   1_545 S
O138   Ti50    1.949   1_545 S
O140   Ti28    1.954   1_545 S
O140   Ti52    1.954   1_545 S
O141   Ti53    1.983   1_545 S
O143   Ti55    1.977   1_545 S
O145   Ti5     1.896   1_655 S
O146   Ti6     2.049   1_655 S
O147   Ti7     1.873   1_655 S
O148   Ti8     2.119   1_655 S
O149   Ti5     1.896   1_655 S
O150   Ti6     1.889   1_655 S
O151   Ti7     2.064   1_655 S
O152   Ti8     1.828   1_655 S
O154   Ti50    1.949   1_545 S
O154   Ti58    1.949   1_545 S
O156   Ti52    1.954   1_545 S
O156   Ti60    1.954   1_545 S
O157   Ti61    1.983   1_545 S
O159   Ti63    1.977   1_545 S
O177   Ti21    1.896   1_655 S
O178   Ti22    2.049   1_655 S
O179   Ti23    1.873   1_655 S
O180   Ti24    2.119   1_655 S
O181   Ti21    1.896   1_655 S
O182   Ti22    1.889   1_655 S
O183   Ti23    2.064   1_655 S
O184   Ti24    1.828   1_655 S
O193   O194    1.480   .     S
O194   H195    1.110   .     S
