data_TiO2_rutile\(0\1\0)
_audit_creation_date              2022-01-17
_audit_creation_method            'Materials Studio'
_symmetry_space_group_name_H-M    'P1'
_symmetry_Int_Tables_number       1
_symmetry_cell_setting            triclinic
loop_
_symmetry_equiv_pos_as_xyz
  x,y,z
_cell_length_a                    11.8360
_cell_length_b                    9.1880
_cell_length_c                    32.8725
_cell_angle_alpha                 90.0000
_cell_angle_beta                  90.0000
_cell_angle_gamma                 90.0000
loop_
_atom_site_label
_atom_site_type_symbol
_atom_site_fract_x
_atom_site_fract_y
_atom_site_fract_z
_atom_site_U_iso_or_equiv
_atom_site_adp_type
_atom_site_occupancy
Ti1    Ti    0.00000   0.40240   0.09716   0.00000  Uiso   1.00
Ti2    Ti    0.00000   0.40240   0.23691   0.00000  Uiso   1.00
Ti3    Ti    0.00000   0.40240   0.37666   0.00000  Uiso   1.00
Ti4    Ti    0.00000   0.40240   0.51641   0.00000  Uiso   1.00
Ti5    Ti    0.12500   0.15240   0.02728   0.00000  Uiso   1.00
Ti6    Ti    0.12500   0.15240   0.16703   0.00000  Uiso   1.00
Ti7    Ti    0.12500   0.15240   0.30678   0.00000  Uiso   1.00
Ti8    Ti    0.12500   0.15240   0.44654   0.00000  Uiso   1.00
O9     O     0.00000   0.05480   0.00000   0.00000  Uiso   1.00
O10    O     0.00000   0.05480   0.13975   0.00000  Uiso   1.00
O11    O     0.00000   0.05480   0.27950   0.00000  Uiso   1.00
O12    O     0.00000   0.05480   0.41926   0.00000  Uiso   1.00
O13    O     0.00000   0.25000   0.05456   0.00000  Uiso   1.00
O14    O     0.00000   0.25000   0.19431   0.00000  Uiso   1.00
O15    O     0.00000   0.25000   0.33406   0.00000  Uiso   1.00
O16    O     0.00000   0.25000   0.47382   0.00000  Uiso   1.00
O17    O     0.12500   0.00000   0.06988   0.00000  Uiso   1.00
O18    O     0.12500   0.00000   0.20963   0.00000  Uiso   1.00
O19    O     0.12500   0.00000   0.34938   0.00000  Uiso   1.00
O20    O     0.12500   0.00000   0.48913   0.00000  Uiso   1.00
O21    O     0.12500   0.30480   0.12444   0.00000  Uiso   1.00
O22    O     0.12500   0.30480   0.26419   0.00000  Uiso   1.00
O23    O     0.12500   0.30480   0.40394   0.00000  Uiso   1.00
O24    O     0.12500   0.30480   0.54369   0.00000  Uiso   1.00
Ti25   Ti    0.25000   0.40240   0.09716   0.00000  Uiso   1.00
Ti26   Ti    0.25000   0.40240   0.23691   0.00000  Uiso   1.00
Ti27   Ti    0.25000   0.40240   0.37666   0.00000  Uiso   1.00
Ti28   Ti    0.25000   0.40240   0.51641   0.00000  Uiso   1.00
Ti29   Ti    0.37500   0.15240   0.02728   0.00000  Uiso   1.00
Ti30   Ti    0.37500   0.15240   0.16703   0.00000  Uiso   1.00
Ti31   Ti    0.37500   0.15240   0.30678   0.00000  Uiso   1.00
Ti32   Ti    0.37500   0.15240   0.44654   0.00000  Uiso   1.00
O33    O     0.25000   0.05480   0.00000   0.00000  Uiso   1.00
O34    O     0.25000   0.05480   0.13975   0.00000  Uiso   1.00
O35    O     0.25000   0.05480   0.27950   0.00000  Uiso   1.00
O36    O     0.25000   0.05480   0.41926   0.00000  Uiso   1.00
O37    O     0.25000   0.25000   0.05456   0.00000  Uiso   1.00
O38    O     0.25000   0.25000   0.19431   0.00000  Uiso   1.00
O39    O     0.25000   0.25000   0.33406   0.00000  Uiso   1.00
O40    O     0.25000   0.25000   0.47382   0.00000  Uiso   1.00
O41    O     0.37500   0.00000   0.06988   0.00000  Uiso   1.00
O42    O     0.37500   0.00000   0.20963   0.00000  Uiso   1.00
O43    O     0.37500   0.00000   0.34938   0.00000  Uiso   1.00
O44    O     0.37500   0.00000   0.48913   0.00000  Uiso   1.00
O45    O     0.37500   0.30480   0.12444   0.00000  Uiso   1.00
O46    O     0.37500   0.30480   0.26419   0.00000  Uiso   1.00
O47    O     0.37500   0.30480   0.40394   0.00000  Uiso   1.00
O48    O     0.37500   0.30480   0.54369   0.00000  Uiso   1.00
Ti49   Ti    0.00000   0.90240   0.09716   0.00000  Uiso   1.00
Ti50   Ti    0.00000   0.90240   0.23691   0.00000  Uiso   1.00
Ti51   Ti    0.00000   0.90240   0.37666   0.00000  Uiso   1.00
Ti52   Ti    0.00000   0.90240   0.51641   0.00000  Uiso   1.00
Ti53   Ti    0.12500   0.65240   0.02728   0.00000  Uiso   1.00
Ti54   Ti    0.12500   0.65240   0.16703   0.00000  Uiso   1.00
Ti55   Ti    0.12500   0.65240   0.30678   0.00000  Uiso   1.00
Ti56   Ti    0.12500   0.65240   0.44654   0.00000  Uiso   1.00
O57    O     0.00000   0.55480   0.00000   0.00000  Uiso   1.00
O58    O     0.00000   0.55480   0.13975   0.00000  Uiso   1.00
O59    O     0.00000   0.55480   0.27950   0.00000  Uiso   1.00
O60    O     0.00000   0.55480   0.41926   0.00000  Uiso   1.00
O61    O     0.00000   0.75000   0.05456   0.00000  Uiso   1.00
O62    O     0.00000   0.75000   0.19431   0.00000  Uiso   1.00
O63    O     0.00000   0.75000   0.33406   0.00000  Uiso   1.00
O64    O     0.00000   0.75000   0.47382   0.00000  Uiso   1.00
O65    O     0.12500   0.50000   0.06988   0.00000  Uiso   1.00
O66    O     0.12500   0.50000   0.20963   0.00000  Uiso   1.00
O67    O     0.12500   0.50000   0.34938   0.00000  Uiso   1.00
O68    O     0.12500   0.50000   0.48913   0.00000  Uiso   1.00
O69    O     0.12500   0.80480   0.12444   0.00000  Uiso   1.00
O70    O     0.12500   0.80480   0.26419   0.00000  Uiso   1.00
O71    O     0.12500   0.80480   0.40394   0.00000  Uiso   1.00
O72    O     0.12500   0.80480   0.54369   0.00000  Uiso   1.00
Ti73   Ti    0.25000   0.90240   0.09716   0.00000  Uiso   1.00
Ti74   Ti    0.25000   0.90240   0.23691   0.00000  Uiso   1.00
Ti75   Ti    0.25000   0.90240   0.37666   0.00000  Uiso   1.00
Ti76   Ti    0.25000   0.90240   0.51641   0.00000  Uiso   1.00
Ti77   Ti    0.37500   0.65240   0.02728   0.00000  Uiso   1.00
Ti78   Ti    0.37500   0.65240   0.16703   0.00000  Uiso   1.00
Ti79   Ti    0.37500   0.65240   0.30678   0.00000  Uiso   1.00
Ti80   Ti    0.37500   0.65240   0.44654   0.00000  Uiso   1.00
O81    O     0.25000   0.55480   0.00000   0.00000  Uiso   1.00
O82    O     0.25000   0.55480   0.13975   0.00000  Uiso   1.00
O83    O     0.25000   0.55480   0.27950   0.00000  Uiso   1.00
O84    O     0.25000   0.55480   0.41926   0.00000  Uiso   1.00
O85    O     0.25000   0.75000   0.05456   0.00000  Uiso   1.00
O86    O     0.25000   0.75000   0.19431   0.00000  Uiso   1.00
O87    O     0.25000   0.75000   0.33406   0.00000  Uiso   1.00
O88    O     0.25000   0.75000   0.47382   0.00000  Uiso   1.00
O89    O     0.37500   0.50000   0.06988   0.00000  Uiso   1.00
O90    O     0.37500   0.50000   0.20963   0.00000  Uiso   1.00
O91    O     0.37500   0.50000   0.34938   0.00000  Uiso   1.00
O92    O     0.37500   0.50000   0.48913   0.00000  Uiso   1.00
O93    O     0.37500   0.80480   0.12444   0.00000  Uiso   1.00
O94    O     0.37500   0.80480   0.26419   0.00000  Uiso   1.00
O95    O     0.37500   0.80480   0.40394   0.00000  Uiso   1.00
O96    O     0.37500   0.80480   0.54369   0.00000  Uiso   1.00
Ti97   Ti    0.50000   0.40240   0.09716   0.00000  Uiso   1.00
Ti98   Ti    0.50000   0.40240   0.23691   0.00000  Uiso   1.00
Ti99   Ti    0.50000   0.40240   0.37666   0.00000  Uiso   1.00
Ti100  Ti    0.50000   0.40240   0.51641   0.00000  Uiso   1.00
Ti101  Ti    0.62500   0.15240   0.02728   0.00000  Uiso   1.00
Ti102  Ti    0.62500   0.15240   0.16703   0.00000  Uiso   1.00
Ti103  Ti    0.62500   0.15240   0.30678   0.00000  Uiso   1.00
Ti104  Ti    0.62500   0.15240   0.44654   0.00000  Uiso   1.00
O105   O     0.50000   0.05480   0.00000   0.00000  Uiso   1.00
O106   O     0.50000   0.05480   0.13975   0.00000  Uiso   1.00
O107   O     0.50000   0.05480   0.27950   0.00000  Uiso   1.00
O108   O     0.50000   0.05480   0.41926   0.00000  Uiso   1.00
O109   O     0.50000   0.25000   0.05456   0.00000  Uiso   1.00
O110   O     0.50000   0.25000   0.19431   0.00000  Uiso   1.00
O111   O     0.50000   0.25000   0.33406   0.00000  Uiso   1.00
O112   O     0.50000   0.25000   0.47382   0.00000  Uiso   1.00
O113   O     0.62500   0.00000   0.06988   0.00000  Uiso   1.00
O114   O     0.62500   0.00000   0.20963   0.00000  Uiso   1.00
O115   O     0.62500   0.00000   0.34938   0.00000  Uiso   1.00
O116   O     0.62500   0.00000   0.48913   0.00000  Uiso   1.00
O117   O     0.62500   0.30480   0.12444   0.00000  Uiso   1.00
O118   O     0.62500   0.30480   0.26419   0.00000  Uiso   1.00
O119   O     0.62500   0.30480   0.40394   0.00000  Uiso   1.00
O120   O     0.62500   0.30480   0.54369   0.00000  Uiso   1.00
Ti121  Ti    0.75000   0.40240   0.09716   0.00000  Uiso   1.00
Ti122  Ti    0.75000   0.40240   0.23691   0.00000  Uiso   1.00
Ti123  Ti    0.75000   0.40240   0.37666   0.00000  Uiso   1.00
Ti124  Ti    0.75000   0.40240   0.51641   0.00000  Uiso   1.00
Ti125  Ti    0.87500   0.15240   0.02728   0.00000  Uiso   1.00
Ti126  Ti    0.87500   0.15240   0.16703   0.00000  Uiso   1.00
Ti127  Ti    0.87500   0.15240   0.30678   0.00000  Uiso   1.00
Ti128  Ti    0.87500   0.15240   0.44654   0.00000  Uiso   1.00
O129   O     0.75000   0.05480   0.00000   0.00000  Uiso   1.00
O130   O     0.75000   0.05480   0.13975   0.00000  Uiso   1.00
O131   O     0.75000   0.05480   0.27950   0.00000  Uiso   1.00
O132   O     0.75000   0.05480   0.41926   0.00000  Uiso   1.00
O133   O     0.75000   0.25000   0.05456   0.00000  Uiso   1.00
O134   O     0.75000   0.25000   0.19431   0.00000  Uiso   1.00
O135   O     0.75000   0.25000   0.33406   0.00000  Uiso   1.00
O136   O     0.75000   0.25000   0.47382   0.00000  Uiso   1.00
O137   O     0.87500   0.00000   0.06988   0.00000  Uiso   1.00
O138   O     0.87500   0.00000   0.20963   0.00000  Uiso   1.00
O139   O     0.87500   0.00000   0.34938   0.00000  Uiso   1.00
O140   O     0.87500   0.00000   0.48913   0.00000  Uiso   1.00
O141   O     0.87500   0.30480   0.12444   0.00000  Uiso   1.00
O142   O     0.87500   0.30480   0.26419   0.00000  Uiso   1.00
O143   O     0.87500   0.30480   0.40394   0.00000  Uiso   1.00
O144   O     0.87500   0.30480   0.54369   0.00000  Uiso   1.00
Ti145  Ti    0.50000   0.90240   0.09716   0.00000  Uiso   1.00
Ti146  Ti    0.50000   0.90240   0.23691   0.00000  Uiso   1.00
Ti147  Ti    0.50000   0.90240   0.37666   0.00000  Uiso   1.00
Ti148  Ti    0.50000   0.90240   0.51641   0.00000  Uiso   1.00
Ti149  Ti    0.62500   0.65240   0.02728   0.00000  Uiso   1.00
Ti150  Ti    0.62500   0.65240   0.16703   0.00000  Uiso   1.00
Ti151  Ti    0.62500   0.65240   0.30678   0.00000  Uiso   1.00
Ti152  Ti    0.62500   0.65240   0.44654   0.00000  Uiso   1.00
O153   O     0.50000   0.55480   0.00000   0.00000  Uiso   1.00
O154   O     0.50000   0.55480   0.13975   0.00000  Uiso   1.00
O155   O     0.50000   0.55480   0.27950   0.00000  Uiso   1.00
O156   O     0.50000   0.55480   0.41926   0.00000  Uiso   1.00
O157   O     0.50000   0.75000   0.05456   0.00000  Uiso   1.00
O158   O     0.50000   0.75000   0.19431   0.00000  Uiso   1.00
O159   O     0.50000   0.75000   0.33406   0.00000  Uiso   1.00
O160   O     0.50000   0.75000   0.47382   0.00000  Uiso   1.00
O161   O     0.62500   0.50000   0.06988   0.00000  Uiso   1.00
O162   O     0.62500   0.50000   0.20963   0.00000  Uiso   1.00
O163   O     0.62500   0.50000   0.34938   0.00000  Uiso   1.00
O164   O     0.62500   0.50000   0.48913   0.00000  Uiso   1.00
O165   O     0.62500   0.80480   0.12444   0.00000  Uiso   1.00
O166   O     0.62500   0.80480   0.26419   0.00000  Uiso   1.00
O167   O     0.62500   0.80480   0.40394   0.00000  Uiso   1.00
O168   O     0.62500   0.80480   0.54369   0.00000  Uiso   1.00
Ti169  Ti    0.75000   0.90240   0.09716   0.00000  Uiso   1.00
Ti170  Ti    0.75000   0.90240   0.23691   0.00000  Uiso   1.00
Ti171  Ti    0.75000   0.90240   0.37666   0.00000  Uiso   1.00
Ti172  Ti    0.75000   0.90240   0.51641   0.00000  Uiso   1.00
Ti173  Ti    0.87500   0.65240   0.02728   0.00000  Uiso   1.00
Ti174  Ti    0.87500   0.65240   0.16703   0.00000  Uiso   1.00
Ti175  Ti    0.87500   0.65240   0.30678   0.00000  Uiso   1.00
Ti176  Ti    0.87500   0.65240   0.44654   0.00000  Uiso   1.00
O177   O     0.75000   0.55480   0.00000   0.00000  Uiso   1.00
O178   O     0.75000   0.55480   0.13975   0.00000  Uiso   1.00
O179   O     0.75000   0.55480   0.27950   0.00000  Uiso   1.00
O180   O     0.75000   0.55480   0.41926   0.00000  Uiso   1.00
O181   O     0.75000   0.75000   0.05456   0.00000  Uiso   1.00
O182   O     0.75000   0.75000   0.19431   0.00000  Uiso   1.00
O183   O     0.75000   0.75000   0.33406   0.00000  Uiso   1.00
O184   O     0.75000   0.75000   0.47382   0.00000  Uiso   1.00
O185   O     0.87500   0.50000   0.06988   0.00000  Uiso   1.00
O186   O     0.87500   0.50000   0.20963   0.00000  Uiso   1.00
O187   O     0.87500   0.50000   0.34938   0.00000  Uiso   1.00
O188   O     0.87500   0.50000   0.48913   0.00000  Uiso   1.00
O189   O     0.87500   0.80480   0.12444   0.00000  Uiso   1.00
O190   O     0.87500   0.80480   0.26419   0.00000  Uiso   1.00
O191   O     0.87500   0.80480   0.40394   0.00000  Uiso   1.00
O192   O     0.87500   0.80480   0.54369   0.00000  Uiso   1.00
loop_
_geom_bond_atom_site_label_1
_geom_bond_atom_site_label_2
_geom_bond_distance
_geom_bond_site_symmetry_2
_ccdc_geom_bond_type
Ti1    O58     1.980   .     S
Ti1    O13     1.980   .     S
Ti1    O65     1.949   .     S
Ti1    O21     1.949   .     S
Ti1    O141    1.949   1_455 S
Ti1    O185    1.949   1_455 S
Ti2    O59     1.980   .     S
Ti2    O14     1.980   .     S
Ti2    O66     1.949   .     S
Ti2    O22     1.949   .     S
Ti2    O142    1.949   1_455 S
Ti2    O186    1.949   1_455 S
Ti3    O60     1.980   .     S
Ti3    O15     1.980   .     S
Ti3    O67     1.949   .     S
Ti3    O23     1.949   .     S
Ti3    O143    1.949   1_455 S
Ti3    O187    1.949   1_455 S
Ti4    O16     1.980   .     S
Ti4    O68     1.949   .     S
Ti4    O24     1.949   .     S
Ti4    O144    1.949   1_455 S
Ti4    O188    1.949   1_455 S
Ti5    O17     1.980   .     S
Ti5    O37     1.949   .     S
Ti5    O33     1.949   .     S
Ti5    O9      1.949   .     S
Ti5    O13     1.949   .     S
Ti6    O18     1.980   .     S
Ti6    O21     1.980   .     S
Ti6    O38     1.949   .     S
Ti6    O34     1.949   .     S
Ti6    O10     1.949   .     S
Ti6    O14     1.949   .     S
Ti7    O19     1.980   .     S
Ti7    O22     1.980   .     S
Ti7    O39     1.949   .     S
Ti7    O35     1.949   .     S
Ti7    O11     1.949   .     S
Ti7    O15     1.949   .     S
Ti8    O20     1.980   .     S
Ti8    O23     1.980   .     S
Ti8    O40     1.949   .     S
Ti8    O36     1.949   .     S
Ti8    O12     1.949   .     S
Ti8    O16     1.949   .     S
O9     Ti125   1.949   1_455 S
O10    Ti49    1.980   1_545 S
O10    Ti126   1.949   1_455 S
O11    Ti50    1.980   1_545 S
O11    Ti127   1.949   1_455 S
O12    Ti51    1.980   1_545 S
O12    Ti128   1.949   1_455 S
O13    Ti125   1.949   1_455 S
O14    Ti126   1.949   1_455 S
O15    Ti127   1.949   1_455 S
O16    Ti128   1.949   1_455 S
O17    Ti49    1.949   1_545 S
O17    Ti73    1.949   1_545 S
O18    Ti50    1.949   1_545 S
O18    Ti74    1.949   1_545 S
O19    Ti51    1.949   1_545 S
O19    Ti75    1.949   1_545 S
O20    Ti52    1.949   1_545 S
O20    Ti76    1.949   1_545 S
O21    Ti25    1.949   .     S
O22    Ti26    1.949   .     S
O23    Ti27    1.949   .     S
O24    Ti28    1.949   .     S
Ti25   O82     1.980   .     S
Ti25   O37     1.980   .     S
Ti25   O89     1.949   .     S
Ti25   O45     1.949   .     S
Ti25   O65     1.949   .     S
Ti26   O83     1.980   .     S
Ti26   O38     1.980   .     S
Ti26   O90     1.949   .     S
Ti26   O46     1.949   .     S
Ti26   O66     1.949   .     S
Ti27   O84     1.980   .     S
Ti27   O39     1.980   .     S
Ti27   O91     1.949   .     S
Ti27   O47     1.949   .     S
Ti27   O67     1.949   .     S
Ti28   O40     1.980   .     S
Ti28   O92     1.949   .     S
Ti28   O48     1.949   .     S
Ti28   O68     1.949   .     S
Ti29   O41     1.980   .     S
Ti29   O33     1.949   .     S
Ti29   O37     1.949   .     S
Ti29   O105    1.949   .     S
Ti29   O109    1.949   .     S
Ti30   O42     1.980   .     S
Ti30   O45     1.980   .     S
Ti30   O34     1.949   .     S
Ti30   O38     1.949   .     S
Ti30   O106    1.949   .     S
Ti30   O110    1.949   .     S
Ti31   O43     1.980   .     S
Ti31   O46     1.980   .     S
Ti31   O35     1.949   .     S
Ti31   O39     1.949   .     S
Ti31   O107    1.949   .     S
Ti31   O111    1.949   .     S
Ti32   O44     1.980   .     S
Ti32   O47     1.980   .     S
Ti32   O36     1.949   .     S
Ti32   O40     1.949   .     S
Ti32   O108    1.949   .     S
Ti32   O112    1.949   .     S
O34    Ti73    1.980   1_545 S
O35    Ti74    1.980   1_545 S
O36    Ti75    1.980   1_545 S
O41    Ti73    1.949   1_545 S
O41    Ti145   1.949   1_545 S
O42    Ti74    1.949   1_545 S
O42    Ti146   1.949   1_545 S
O43    Ti75    1.949   1_545 S
O43    Ti147   1.949   1_545 S
O44    Ti76    1.949   1_545 S
O44    Ti148   1.949   1_545 S
O45    Ti97    1.949   .     S
O46    Ti98    1.949   .     S
O47    Ti99    1.949   .     S
O48    Ti100   1.949   .     S
Ti49   O61     1.980   .     S
Ti49   O69     1.949   .     S
Ti49   O10     1.980   1_565 S
Ti49   O17     1.949   1_565 S
Ti49   O137    1.949   1_465 S
Ti49   O189    1.949   1_455 S
Ti50   O62     1.980   .     S
Ti50   O70     1.949   .     S
Ti50   O11     1.980   1_565 S
Ti50   O18     1.949   1_565 S
Ti50   O138    1.949   1_465 S
Ti50   O190    1.949   1_455 S
Ti51   O63     1.980   .     S
Ti51   O71     1.949   .     S
Ti51   O12     1.980   1_565 S
Ti51   O19     1.949   1_565 S
Ti51   O139    1.949   1_465 S
Ti51   O191    1.949   1_455 S
Ti52   O64     1.980   .     S
Ti52   O72     1.949   .     S
Ti52   O20     1.949   1_565 S
Ti52   O140    1.949   1_465 S
Ti52   O192    1.949   1_455 S
Ti53   O65     1.980   .     S
Ti53   O85     1.949   .     S
Ti53   O81     1.949   .     S
Ti53   O57     1.949   .     S
Ti53   O61     1.949   .     S
Ti54   O66     1.980   .     S
Ti54   O69     1.980   .     S
Ti54   O86     1.949   .     S
Ti54   O82     1.949   .     S
Ti54   O58     1.949   .     S
Ti54   O62     1.949   .     S
Ti55   O67     1.980   .     S
Ti55   O70     1.980   .     S
Ti55   O87     1.949   .     S
Ti55   O83     1.949   .     S
Ti55   O59     1.949   .     S
Ti55   O63     1.949   .     S
Ti56   O68     1.980   .     S
Ti56   O71     1.980   .     S
Ti56   O88     1.949   .     S
Ti56   O84     1.949   .     S
Ti56   O60     1.949   .     S
Ti56   O64     1.949   .     S
O57    Ti173   1.949   1_455 S
O58    Ti174   1.949   1_455 S
O59    Ti175   1.949   1_455 S
O60    Ti176   1.949   1_455 S
O61    Ti173   1.949   1_455 S
O62    Ti174   1.949   1_455 S
O63    Ti175   1.949   1_455 S
O64    Ti176   1.949   1_455 S
O69    Ti73    1.949   .     S
O70    Ti74    1.949   .     S
O71    Ti75    1.949   .     S
O72    Ti76    1.949   .     S
Ti73   O85     1.980   .     S
Ti73   O93     1.949   .     S
Ti73   O17     1.949   1_565 S
Ti73   O34     1.980   1_565 S
Ti73   O41     1.949   1_565 S
Ti74   O86     1.980   .     S
Ti74   O94     1.949   .     S
Ti74   O18     1.949   1_565 S
Ti74   O35     1.980   1_565 S
Ti74   O42     1.949   1_565 S
Ti75   O87     1.980   .     S
Ti75   O95     1.949   .     S
Ti75   O19     1.949   1_565 S
Ti75   O36     1.980   1_565 S
Ti75   O43     1.949   1_565 S
Ti76   O88     1.980   .     S
Ti76   O96     1.949   .     S
Ti76   O20     1.949   1_565 S
Ti76   O44     1.949   1_565 S
Ti77   O89     1.980   .     S
Ti77   O81     1.949   .     S
Ti77   O85     1.949   .     S
Ti77   O153    1.949   .     S
Ti77   O157    1.949   .     S
Ti78   O90     1.980   .     S
Ti78   O93     1.980   .     S
Ti78   O82     1.949   .     S
Ti78   O86     1.949   .     S
Ti78   O154    1.949   .     S
Ti78   O158    1.949   .     S
Ti79   O91     1.980   .     S
Ti79   O94     1.980   .     S
Ti79   O83     1.949   .     S
Ti79   O87     1.949   .     S
Ti79   O155    1.949   .     S
Ti79   O159    1.949   .     S
Ti80   O92     1.980   .     S
Ti80   O95     1.980   .     S
Ti80   O84     1.949   .     S
Ti80   O88     1.949   .     S
Ti80   O156    1.949   .     S
Ti80   O160    1.949   .     S
O89    Ti97    1.949   .     S
O90    Ti98    1.949   .     S
O91    Ti99    1.949   .     S
O92    Ti100   1.949   .     S
O93    Ti145   1.949   .     S
O94    Ti146   1.949   .     S
O95    Ti147   1.949   .     S
O96    Ti148   1.949   .     S
Ti97   O154    1.980   .     S
Ti97   O109    1.980   .     S
Ti97   O161    1.949   .     S
Ti97   O117    1.949   .     S
Ti98   O155    1.980   .     S
Ti98   O110    1.980   .     S
Ti98   O162    1.949   .     S
Ti98   O118    1.949   .     S
Ti99   O156    1.980   .     S
Ti99   O111    1.980   .     S
Ti99   O163    1.949   .     S
Ti99   O119    1.949   .     S
Ti100  O112    1.980   .     S
Ti100  O164    1.949   .     S
Ti100  O120    1.949   .     S
Ti101  O113    1.980   .     S
Ti101  O133    1.949   .     S
Ti101  O129    1.949   .     S
Ti101  O105    1.949   .     S
Ti101  O109    1.949   .     S
Ti102  O114    1.980   .     S
Ti102  O117    1.980   .     S
Ti102  O134    1.949   .     S
Ti102  O130    1.949   .     S
Ti102  O106    1.949   .     S
Ti102  O110    1.949   .     S
Ti103  O115    1.980   .     S
Ti103  O118    1.980   .     S
Ti103  O135    1.949   .     S
Ti103  O131    1.949   .     S
Ti103  O107    1.949   .     S
Ti103  O111    1.949   .     S
Ti104  O116    1.980   .     S
Ti104  O119    1.980   .     S
Ti104  O136    1.949   .     S
Ti104  O132    1.949   .     S
Ti104  O108    1.949   .     S
Ti104  O112    1.949   .     S
O106   Ti145   1.980   1_545 S
O107   Ti146   1.980   1_545 S
O108   Ti147   1.980   1_545 S
O113   Ti145   1.949   1_545 S
O113   Ti169   1.949   1_545 S
O114   Ti146   1.949   1_545 S
O114   Ti170   1.949   1_545 S
O115   Ti147   1.949   1_545 S
O115   Ti171   1.949   1_545 S
O116   Ti148   1.949   1_545 S
O116   Ti172   1.949   1_545 S
O117   Ti121   1.949   .     S
O118   Ti122   1.949   .     S
O119   Ti123   1.949   .     S
O120   Ti124   1.949   .     S
Ti121  O178    1.980   .     S
Ti121  O133    1.980   .     S
Ti121  O185    1.949   .     S
Ti121  O141    1.949   .     S
Ti121  O161    1.949   .     S
Ti122  O179    1.980   .     S
Ti122  O134    1.980   .     S
Ti122  O186    1.949   .     S
Ti122  O142    1.949   .     S
Ti122  O162    1.949   .     S
Ti123  O180    1.980   .     S
Ti123  O135    1.980   .     S
Ti123  O187    1.949   .     S
Ti123  O143    1.949   .     S
Ti123  O163    1.949   .     S
Ti124  O136    1.980   .     S
Ti124  O188    1.949   .     S
Ti124  O144    1.949   .     S
Ti124  O164    1.949   .     S
Ti125  O137    1.980   .     S
Ti125  O129    1.949   .     S
Ti125  O133    1.949   .     S
Ti125  O9      1.949   1_655 S
Ti125  O13     1.949   1_655 S
Ti126  O138    1.980   .     S
Ti126  O141    1.980   .     S
Ti126  O130    1.949   .     S
Ti126  O134    1.949   .     S
Ti126  O10     1.949   1_655 S
Ti126  O14     1.949   1_655 S
Ti127  O139    1.980   .     S
Ti127  O142    1.980   .     S
Ti127  O131    1.949   .     S
Ti127  O135    1.949   .     S
Ti127  O11     1.949   1_655 S
Ti127  O15     1.949   1_655 S
Ti128  O140    1.980   .     S
Ti128  O143    1.980   .     S
Ti128  O132    1.949   .     S
Ti128  O136    1.949   .     S
Ti128  O12     1.949   1_655 S
Ti128  O16     1.949   1_655 S
O130   Ti169   1.980   1_545 S
O131   Ti170   1.980   1_545 S
O132   Ti171   1.980   1_545 S
O137   Ti169   1.949   1_545 S
O137   Ti49    1.949   1_645 S
O138   Ti170   1.949   1_545 S
O138   Ti50    1.949   1_645 S
O139   Ti171   1.949   1_545 S
O139   Ti51    1.949   1_645 S
O140   Ti172   1.949   1_545 S
O140   Ti52    1.949   1_645 S
O141   Ti1     1.949   1_655 S
O142   Ti2     1.949   1_655 S
O143   Ti3     1.949   1_655 S
O144   Ti4     1.949   1_655 S
Ti145  O157    1.980   .     S
Ti145  O165    1.949   .     S
Ti145  O106    1.980   1_565 S
Ti145  O113    1.949   1_565 S
Ti145  O41     1.949   1_565 S
Ti146  O158    1.980   .     S
Ti146  O166    1.949   .     S
Ti146  O107    1.980   1_565 S
Ti146  O114    1.949   1_565 S
Ti146  O42     1.949   1_565 S
Ti147  O159    1.980   .     S
Ti147  O167    1.949   .     S
Ti147  O108    1.980   1_565 S
Ti147  O115    1.949   1_565 S
Ti147  O43     1.949   1_565 S
Ti148  O160    1.980   .     S
Ti148  O168    1.949   .     S
Ti148  O116    1.949   1_565 S
Ti148  O44     1.949   1_565 S
Ti149  O161    1.980   .     S
Ti149  O181    1.949   .     S
Ti149  O177    1.949   .     S
Ti149  O153    1.949   .     S
Ti149  O157    1.949   .     S
Ti150  O162    1.980   .     S
Ti150  O165    1.980   .     S
Ti150  O182    1.949   .     S
Ti150  O178    1.949   .     S
Ti150  O154    1.949   .     S
Ti150  O158    1.949   .     S
Ti151  O163    1.980   .     S
Ti151  O166    1.980   .     S
Ti151  O183    1.949   .     S
Ti151  O179    1.949   .     S
Ti151  O155    1.949   .     S
Ti151  O159    1.949   .     S
Ti152  O164    1.980   .     S
Ti152  O167    1.980   .     S
Ti152  O184    1.949   .     S
Ti152  O180    1.949   .     S
Ti152  O156    1.949   .     S
Ti152  O160    1.949   .     S
O165   Ti169   1.949   .     S
O166   Ti170   1.949   .     S
O167   Ti171   1.949   .     S
O168   Ti172   1.949   .     S
Ti169  O181    1.980   .     S
Ti169  O189    1.949   .     S
Ti169  O113    1.949   1_565 S
Ti169  O130    1.980   1_565 S
Ti169  O137    1.949   1_565 S
Ti170  O182    1.980   .     S
Ti170  O190    1.949   .     S
Ti170  O114    1.949   1_565 S
Ti170  O131    1.980   1_565 S
Ti170  O138    1.949   1_565 S
Ti171  O183    1.980   .     S
Ti171  O191    1.949   .     S
Ti171  O115    1.949   1_565 S
Ti171  O132    1.980   1_565 S
Ti171  O139    1.949   1_565 S
Ti172  O184    1.980   .     S
Ti172  O192    1.949   .     S
Ti172  O116    1.949   1_565 S
Ti172  O140    1.949   1_565 S
Ti173  O185    1.980   .     S
Ti173  O177    1.949   .     S
Ti173  O181    1.949   .     S
Ti173  O57     1.949   1_655 S
Ti173  O61     1.949   1_655 S
Ti174  O186    1.980   .     S
Ti174  O189    1.980   .     S
Ti174  O178    1.949   .     S
Ti174  O182    1.949   .     S
Ti174  O58     1.949   1_655 S
Ti174  O62     1.949   1_655 S
Ti175  O187    1.980   .     S
Ti175  O190    1.980   .     S
Ti175  O179    1.949   .     S
Ti175  O183    1.949   .     S
Ti175  O59     1.949   1_655 S
Ti175  O63     1.949   1_655 S
Ti176  O188    1.980   .     S
Ti176  O191    1.980   .     S
Ti176  O180    1.949   .     S
Ti176  O184    1.949   .     S
Ti176  O60     1.949   1_655 S
Ti176  O64     1.949   1_655 S
O185   Ti1     1.949   1_655 S
O186   Ti2     1.949   1_655 S
O187   Ti3     1.949   1_655 S
O188   Ti4     1.949   1_655 S
O189   Ti49    1.949   1_655 S
O190   Ti50    1.949   1_655 S
O191   Ti51    1.949   1_655 S
O192   Ti52    1.949   1_655 S
