data_CONTCAR
_audit_creation_date              2022-01-19
_audit_creation_method            'Materials Studio'
_symmetry_space_group_name_H-M    'P1'
_symmetry_Int_Tables_number       1
_symmetry_cell_setting            triclinic
loop_
_symmetry_equiv_pos_as_xyz
  x,y,z
_cell_length_a                    21.8406
_cell_length_b                    9.1068
_cell_length_c                    20.6493
_cell_angle_alpha                 89.9937
_cell_angle_beta                  90.6293
_cell_angle_gamma                 89.9998
loop_
_atom_site_label
_atom_site_type_symbol
_atom_site_fract_x
_atom_site_fract_y
_atom_site_fract_z
_atom_site_U_iso_or_equiv
_atom_site_adp_type
_atom_site_occupancy
Ti1    Ti    0.00873   0.40240   0.03162   0.00000  Uiso   1.00
Ti2    Ti    0.18179   0.40866   0.14869   0.00000  Uiso   1.00
Ti3    Ti    0.11689   0.38784   0.27563   0.00000  Uiso   1.00
Ti4    Ti    0.03936   0.42774   0.39166   0.00000  Uiso   1.00
Ti5    Ti    0.13373   0.15240   0.03162   0.00000  Uiso   1.00
Ti6    Ti    0.05678   0.14605   0.14869   0.00000  Uiso   1.00
Ti7    Ti    0.24188   0.16681   0.27562   0.00000  Uiso   1.00
Ti8    Ti    0.16436   0.12689   0.39165   0.00000  Uiso   1.00
Ti9    Ti    0.25873   0.40240   0.03162   0.00000  Uiso   1.00
Ti10   Ti    0.43179   0.40866   0.14869   0.00000  Uiso   1.00
Ti11   Ti    0.36688   0.38783   0.27562   0.00000  Uiso   1.00
Ti12   Ti    0.28936   0.42774   0.39166   0.00000  Uiso   1.00
Ti13   Ti    0.38373   0.15240   0.03162   0.00000  Uiso   1.00
Ti14   Ti    0.30678   0.14605   0.14869   0.00000  Uiso   1.00
Ti15   Ti    0.49188   0.16682   0.27561   0.00000  Uiso   1.00
Ti16   Ti    0.41436   0.12689   0.39165   0.00000  Uiso   1.00
Ti17   Ti    0.00873   0.90240   0.03162   0.00000  Uiso   1.00
Ti18   Ti    0.18179   0.90866   0.14869   0.00000  Uiso   1.00
Ti19   Ti    0.11689   0.88784   0.27563   0.00000  Uiso   1.00
Ti20   Ti    0.03936   0.92774   0.39166   0.00000  Uiso   1.00
Ti21   Ti    0.13373   0.65240   0.03162   0.00000  Uiso   1.00
Ti22   Ti    0.05678   0.64605   0.14869   0.00000  Uiso   1.00
Ti23   Ti    0.24188   0.66681   0.27562   0.00000  Uiso   1.00
Ti24   Ti    0.16436   0.62689   0.39165   0.00000  Uiso   1.00
Ti25   Ti    0.25873   0.90240   0.03162   0.00000  Uiso   1.00
Ti26   Ti    0.43179   0.90866   0.14869   0.00000  Uiso   1.00
Ti27   Ti    0.36688   0.88783   0.27562   0.00000  Uiso   1.00
Ti28   Ti    0.28936   0.92774   0.39166   0.00000  Uiso   1.00
Ti29   Ti    0.38373   0.65240   0.03162   0.00000  Uiso   1.00
Ti30   Ti    0.30678   0.64605   0.14869   0.00000  Uiso   1.00
Ti31   Ti    0.49188   0.66682   0.27561   0.00000  Uiso   1.00
Ti32   Ti    0.41436   0.62689   0.39165   0.00000  Uiso   1.00
Ti33   Ti    0.50873   0.40240   0.03162   0.00000  Uiso   1.00
Ti34   Ti    0.68179   0.40866   0.14869   0.00000  Uiso   1.00
Ti35   Ti    0.61688   0.38783   0.27562   0.00000  Uiso   1.00
Ti36   Ti    0.53935   0.42775   0.39166   0.00000  Uiso   1.00
Ti37   Ti    0.63373   0.15240   0.03162   0.00000  Uiso   1.00
Ti38   Ti    0.55678   0.14605   0.14870   0.00000  Uiso   1.00
Ti39   Ti    0.74188   0.16682   0.27562   0.00000  Uiso   1.00
Ti40   Ti    0.66437   0.12689   0.39166   0.00000  Uiso   1.00
Ti41   Ti    0.75873   0.40240   0.03162   0.00000  Uiso   1.00
Ti42   Ti    0.93179   0.40866   0.14870   0.00000  Uiso   1.00
Ti43   Ti    0.86688   0.38784   0.27562   0.00000  Uiso   1.00
Ti44   Ti    0.78935   0.42775   0.39166   0.00000  Uiso   1.00
Ti45   Ti    0.88373   0.15240   0.03162   0.00000  Uiso   1.00
Ti46   Ti    0.80678   0.14605   0.14869   0.00000  Uiso   1.00
Ti47   Ti    0.99188   0.16682   0.27562   0.00000  Uiso   1.00
Ti48   Ti    0.91436   0.12689   0.39165   0.00000  Uiso   1.00
Ti49   Ti    0.50873   0.90240   0.03162   0.00000  Uiso   1.00
Ti50   Ti    0.68179   0.90866   0.14869   0.00000  Uiso   1.00
Ti51   Ti    0.61688   0.88783   0.27562   0.00000  Uiso   1.00
Ti52   Ti    0.53935   0.92775   0.39166   0.00000  Uiso   1.00
Ti53   Ti    0.63373   0.65240   0.03162   0.00000  Uiso   1.00
Ti54   Ti    0.55678   0.64605   0.14870   0.00000  Uiso   1.00
Ti55   Ti    0.74188   0.66682   0.27562   0.00000  Uiso   1.00
Ti56   Ti    0.66437   0.62689   0.39166   0.00000  Uiso   1.00
Ti57   Ti    0.75873   0.90240   0.03162   0.00000  Uiso   1.00
Ti58   Ti    0.93179   0.90866   0.14870   0.00000  Uiso   1.00
Ti59   Ti    0.86688   0.88784   0.27562   0.00000  Uiso   1.00
Ti60   Ti    0.78935   0.92775   0.39166   0.00000  Uiso   1.00
Ti61   Ti    0.88373   0.65240   0.03162   0.00000  Uiso   1.00
Ti62   Ti    0.80678   0.64605   0.14869   0.00000  Uiso   1.00
Ti63   Ti    0.99188   0.66682   0.27562   0.00000  Uiso   1.00
Ti64   Ti    0.91436   0.62689   0.39165   0.00000  Uiso   1.00
O1     O     0.06259   0.05480   0.06324   0.00000  Uiso   1.00
O2     O     0.23932   0.05710   0.18851   0.00000  Uiso   1.00
O3     O     0.16951   0.05105   0.30939   0.00000  Uiso   1.00
O4     O     0.09877   0.04509   0.43223   0.00000  Uiso   1.00
O5     O     0.20487   0.25000   0.00000   0.00000  Uiso   1.00
O6     O     0.13416   0.24392   0.11528   0.00000  Uiso   1.00
O7     O     0.06124   0.24918   0.23510   0.00000  Uiso   1.00
O8     O     0.23902   0.25248   0.35916   0.00000  Uiso   1.00
O9     O     0.07987   0.30480   0.00000   0.00000  Uiso   1.00
O10    O     0.00916   0.31081   0.11527   0.00000  Uiso   1.00
O11    O     0.18624   0.30550   0.23511   0.00000  Uiso   1.00
O12    O     0.11402   0.30215   0.35917   0.00000  Uiso   1.00
O13    O     0.18758  -0.00000   0.06324   0.00000  Uiso   1.00
O14    O     0.11431  -0.00241   0.18851   0.00000  Uiso   1.00
O15    O     0.04451   0.00359   0.30938   0.00000  Uiso   1.00
O16    O     0.22377   0.00950   0.43224   0.00000  Uiso   1.00
O17    O     0.31258   0.05480   0.06324   0.00000  Uiso   1.00
O18    O     0.48932   0.05710   0.18851   0.00000  Uiso   1.00
O19    O     0.41951   0.05104   0.30939   0.00000  Uiso   1.00
O20    O     0.34877   0.04508   0.43223   0.00000  Uiso   1.00
O21    O     0.45487   0.25000   0.00000   0.00000  Uiso   1.00
O22    O     0.38416   0.24392   0.11527   0.00000  Uiso   1.00
O23    O     0.31124   0.24918   0.23511   0.00000  Uiso   1.00
O24    O     0.48902   0.25248   0.35916   0.00000  Uiso   1.00
O25    O     0.32987   0.30480   0.00000   0.00000  Uiso   1.00
O26    O     0.25916   0.31082   0.11527   0.00000  Uiso   1.00
O27    O     0.43624   0.30550   0.23511   0.00000  Uiso   1.00
O28    O     0.36402   0.30215   0.35917   0.00000  Uiso   1.00
O29    O     0.43758  -0.00000   0.06324   0.00000  Uiso   1.00
O30    O     0.36431  -0.00241   0.18851   0.00000  Uiso   1.00
O31    O     0.29451   0.00359   0.30938   0.00000  Uiso   1.00
O32    O     0.47377   0.00950   0.43223   0.00000  Uiso   1.00
O33    O     0.06259   0.55480   0.06324   0.00000  Uiso   1.00
O34    O     0.23932   0.55710   0.18851   0.00000  Uiso   1.00
O35    O     0.16951   0.55105   0.30939   0.00000  Uiso   1.00
O36    O     0.09877   0.54509   0.43224   0.00000  Uiso   1.00
O37    O     0.20487   0.75000   0.00000   0.00000  Uiso   1.00
O38    O     0.13416   0.74392   0.11528   0.00000  Uiso   1.00
O39    O     0.06124   0.74918   0.23510   0.00000  Uiso   1.00
O40    O     0.23902   0.75248   0.35916   0.00000  Uiso   1.00
O41    O     0.07987   0.80480   0.00000   0.00000  Uiso   1.00
O42    O     0.00916   0.81081   0.11527   0.00000  Uiso   1.00
O43    O     0.18624   0.80550   0.23511   0.00000  Uiso   1.00
O44    O     0.11402   0.80215   0.35917   0.00000  Uiso   1.00
O45    O     0.18758   0.50000   0.06324   0.00000  Uiso   1.00
O46    O     0.11431   0.49760   0.18851   0.00000  Uiso   1.00
O47    O     0.04451   0.50359   0.30938   0.00000  Uiso   1.00
O48    O     0.22377   0.50950   0.43224   0.00000  Uiso   1.00
O49    O     0.31258   0.55480   0.06324   0.00000  Uiso   1.00
O50    O     0.48932   0.55710   0.18851   0.00000  Uiso   1.00
O51    O     0.41951   0.55104   0.30939   0.00000  Uiso   1.00
O52    O     0.34877   0.54508   0.43223   0.00000  Uiso   1.00
O53    O     0.45487   0.75000   0.00000   0.00000  Uiso   1.00
O54    O     0.38416   0.74392   0.11527   0.00000  Uiso   1.00
O55    O     0.31124   0.74918   0.23511   0.00000  Uiso   1.00
O56    O     0.48902   0.75248   0.35916   0.00000  Uiso   1.00
O57    O     0.32987   0.80480   0.00000   0.00000  Uiso   1.00
O58    O     0.25916   0.81082   0.11527   0.00000  Uiso   1.00
O59    O     0.43624   0.80550   0.23511   0.00000  Uiso   1.00
O60    O     0.36402   0.80215   0.35917   0.00000  Uiso   1.00
O61    O     0.43758   0.50000   0.06324   0.00000  Uiso   1.00
O62    O     0.36431   0.49759   0.18851   0.00000  Uiso   1.00
O63    O     0.29451   0.50358   0.30938   0.00000  Uiso   1.00
O64    O     0.47377   0.50950   0.43223   0.00000  Uiso   1.00
O65    O     0.56259   0.05480   0.06324   0.00000  Uiso   1.00
O66    O     0.73932   0.05710   0.18851   0.00000  Uiso   1.00
O67    O     0.66951   0.05104   0.30939   0.00000  Uiso   1.00
O68    O     0.59877   0.04508   0.43223   0.00000  Uiso   1.00
O69    O     0.70487   0.25000   0.00000   0.00000  Uiso   1.00
O70    O     0.63417   0.24392   0.11528   0.00000  Uiso   1.00
O71    O     0.56124   0.24918   0.23511   0.00000  Uiso   1.00
O72    O     0.73902   0.25248   0.35916   0.00000  Uiso   1.00
O73    O     0.57987   0.30480   0.00000   0.00000  Uiso   1.00
O74    O     0.50916   0.31082   0.11527   0.00000  Uiso   1.00
O75    O     0.68624   0.30550   0.23511   0.00000  Uiso   1.00
O76    O     0.61402   0.30215   0.35917   0.00000  Uiso   1.00
O77    O     0.68758  -0.00000   0.06324   0.00000  Uiso   1.00
O78    O     0.61432  -0.00241   0.18851   0.00000  Uiso   1.00
O79    O     0.54451   0.00359   0.30938   0.00000  Uiso   1.00
O80    O     0.72377   0.00951   0.43224   0.00000  Uiso   1.00
O81    O     0.81258   0.05480   0.06324   0.00000  Uiso   1.00
O82    O     0.98932   0.05710   0.18851   0.00000  Uiso   1.00
O83    O     0.91951   0.05105   0.30939   0.00000  Uiso   1.00
O84    O     0.84877   0.04509   0.43223   0.00000  Uiso   1.00
O85    O     0.95487   0.25000   0.00000   0.00000  Uiso   1.00
O86    O     0.88416   0.24392   0.11527   0.00000  Uiso   1.00
O87    O     0.81124   0.24918   0.23511   0.00000  Uiso   1.00
O88    O     0.98902   0.25248   0.35916   0.00000  Uiso   1.00
O89    O     0.82987   0.30480   0.00000   0.00000  Uiso   1.00
O90    O     0.75916   0.31082   0.11527   0.00000  Uiso   1.00
O91    O     0.93624   0.30549   0.23511   0.00000  Uiso   1.00
O92    O     0.86402   0.30215   0.35917   0.00000  Uiso   1.00
O93    O     0.93758  -0.00000   0.06324   0.00000  Uiso   1.00
O94    O     0.86432  -0.00241   0.18851   0.00000  Uiso   1.00
O95    O     0.79451   0.00359   0.30938   0.00000  Uiso   1.00
O96    O     0.97376   0.00951   0.43224   0.00000  Uiso   1.00
O97    O     0.56259   0.55480   0.06324   0.00000  Uiso   1.00
O98    O     0.73932   0.55710   0.18851   0.00000  Uiso   1.00
O99    O     0.66951   0.55104   0.30939   0.00000  Uiso   1.00
O100   O     0.59877   0.54508   0.43223   0.00000  Uiso   1.00
O101   O     0.70487   0.75000   0.00000   0.00000  Uiso   1.00
O102   O     0.63417   0.74392   0.11528   0.00000  Uiso   1.00
O103   O     0.56124   0.74918   0.23511   0.00000  Uiso   1.00
O104   O     0.73902   0.75248   0.35916   0.00000  Uiso   1.00
O105   O     0.57987   0.80480   0.00000   0.00000  Uiso   1.00
O106   O     0.50916   0.81082   0.11527   0.00000  Uiso   1.00
O107   O     0.68624   0.80550   0.23511   0.00000  Uiso   1.00
O108   O     0.61402   0.80215   0.35917   0.00000  Uiso   1.00
O109   O     0.68758   0.50000   0.06324   0.00000  Uiso   1.00
O110   O     0.61432   0.49759   0.18851   0.00000  Uiso   1.00
O111   O     0.54451   0.50359   0.30938   0.00000  Uiso   1.00
O112   O     0.72377   0.50951   0.43224   0.00000  Uiso   1.00
O113   O     0.81258   0.55480   0.06324   0.00000  Uiso   1.00
O114   O     0.98932   0.55710   0.18851   0.00000  Uiso   1.00
O115   O     0.91951   0.55105   0.30939   0.00000  Uiso   1.00
O116   O     0.84877   0.54509   0.43223   0.00000  Uiso   1.00
O117   O     0.95487   0.75000   0.00000   0.00000  Uiso   1.00
O118   O     0.88416   0.74392   0.11527   0.00000  Uiso   1.00
O119   O     0.81124   0.74918   0.23511   0.00000  Uiso   1.00
O120   O     0.98902   0.75248   0.35916   0.00000  Uiso   1.00
O121   O     0.82987   0.80480   0.00000   0.00000  Uiso   1.00
O122   O     0.75916   0.81082   0.11527   0.00000  Uiso   1.00
O123   O     0.93624   0.80549   0.23511   0.00000  Uiso   1.00
O124   O     0.86402   0.80215   0.35917   0.00000  Uiso   1.00
O125   O     0.93758   0.50000   0.06324   0.00000  Uiso   1.00
O126   O     0.86432   0.49759   0.18851   0.00000  Uiso   1.00
O127   O     0.79451   0.50359   0.30938   0.00000  Uiso   1.00
O128   O     0.97376   0.50951   0.43224   0.00000  Uiso   1.00
O      O     0.74623   0.40851   0.46732   0.00000  Uiso   1.00
loop_
_geom_bond_atom_site_label_1
_geom_bond_atom_site_label_2
_geom_bond_distance
_geom_bond_site_symmetry_2
_ccdc_geom_bond_type
Ti1    Ti42    2.960   1_455 S
Ti1    O9      1.911   .     S
Ti1    O10     1.918   .     S
Ti1    O33     1.929   .     S
Ti1    O85     1.929   1_455 S
Ti1    O125    1.911   1_455 S
Ti2    Ti3     3.000   .     S
Ti2    Ti9     2.960   .     S
Ti2    O6      1.948   .     S
Ti2    O11     2.018   .     S
Ti2    O26     2.038   .     S
Ti2    O34     2.015   .     S
Ti2    O45     1.956   .     S
Ti2    O46     1.879   .     S
Ti3    Ti4     2.971   .     S
Ti3    O7      1.936   .     S
Ti3    O11     1.893   .     S
Ti3    O12     1.895   .     S
Ti3    O35     2.000   .     S
Ti3    O46     2.058   .     S
Ti3    O47     2.030   .     S
Ti4    O12     2.108   .     S
Ti4    O36     1.872   .     S
Ti4    O47     1.839   .     S
Ti4    O88     2.047   1_455 S
Ti4    O128    1.826   1_455 S
Ti5    Ti6     2.960   .     S
Ti5    O1      1.911   .     S
Ti5    O5      1.911   .     S
Ti5    O6      1.918   .     S
Ti5    O9      1.929   .     S
Ti5    O13     1.928   .     S
Ti6    Ti47    2.999   1_455 S
Ti6    O1      1.956   .     S
Ti6    O6      2.038   .     S
Ti6    O7      2.018   .     S
Ti6    O10     1.948   .     S
Ti6    O14     2.015   .     S
Ti6    O82     1.879   1_455 S
Ti7    Ti8     2.971   .     S
Ti7    Ti14    2.999   .     S
Ti7    O2      2.058   .     S
Ti7    O3      2.030   .     S
Ti7    O8      1.895   .     S
Ti7    O11     1.936   .     S
Ti7    O23     1.893   .     S
Ti7    O31     2.000   .     S
Ti8    O3      1.838   .     S
Ti8    O4      1.826   .     S
Ti8    O8      2.107   .     S
Ti8    O12     2.047   .     S
Ti8    O16     1.872   .     S
Ti9    O5      1.929   .     S
Ti9    O25     1.911   .     S
Ti9    O26     1.918   .     S
Ti9    O45     1.911   .     S
Ti9    O49     1.928   .     S
Ti10   Ti11    2.999   .     S
Ti10   Ti33    2.960   .     S
Ti10   O22     1.948   .     S
Ti10   O27     2.018   .     S
Ti10   O50     2.015   .     S
Ti10   O61     1.956   .     S
Ti10   O62     1.879   .     S
Ti10   O74     2.038   .     S
Ti11   Ti12    2.972   .     S
Ti11   O23     1.936   .     S
Ti11   O27     1.893   .     S
Ti11   O28     1.895   .     S
Ti11   O51     2.000   .     S
Ti11   O62     2.058   .     S
Ti11   O63     2.030   .     S
Ti12   O8      2.047   .     S
Ti12   O28     2.108   .     S
Ti12   O48     1.826   .     S
Ti12   O52     1.872   .     S
Ti12   O63     1.839   .     S
Ti13   Ti14    2.960   .     S
Ti13   O17     1.911   .     S
Ti13   O21     1.911   .     S
Ti13   O22     1.918   .     S
Ti13   O25     1.929   .     S
Ti13   O29     1.928   .     S
Ti14   O2      1.879   .     S
Ti14   O17     1.956   .     S
Ti14   O22     2.038   .     S
Ti14   O23     2.018   .     S
Ti14   O26     1.948   .     S
Ti14   O30     2.015   .     S
Ti15   Ti16    2.971   .     S
Ti15   Ti38    2.999   .     S
Ti15   O18     2.058   .     S
Ti15   O19     2.030   .     S
Ti15   O24     1.895   .     S
Ti15   O27     1.936   .     S
Ti15   O71     1.893   .     S
Ti15   O79     2.000   .     S
Ti16   O19     1.838   .     S
Ti16   O20     1.826   .     S
Ti16   O24     2.107   .     S
Ti16   O28     2.047   .     S
Ti16   O32     1.872   .     S
Ti17   Ti58    2.960   1_455 S
Ti17   O1      1.929   1_565 S
Ti17   O41     1.911   .     S
Ti17   O42     1.918   .     S
Ti17   O93     1.911   1_465 S
Ti17   O117    1.929   1_455 S
Ti18   Ti19    3.000   .     S
Ti18   Ti25    2.960   .     S
Ti18   O2      2.015   1_565 S
Ti18   O13     1.956   1_565 S
Ti18   O14     1.879   1_565 S
Ti18   O38     1.948   .     S
Ti18   O43     2.018   .     S
Ti18   O58     2.038   .     S
Ti19   Ti20    2.971   .     S
Ti19   O3      2.000   1_565 S
Ti19   O14     2.058   1_565 S
Ti19   O15     2.030   1_565 S
Ti19   O39     1.936   .     S
Ti19   O43     1.893   .     S
Ti19   O44     1.895   .     S
Ti20   O4      1.872   1_565 S
Ti20   O15     1.839   1_565 S
Ti20   O44     2.108   .     S
Ti20   O96     1.826   1_465 S
Ti20   O120    2.047   1_455 S
Ti21   Ti22    2.960   .     S
Ti21   O33     1.911   .     S
Ti21   O37     1.911   .     S
Ti21   O38     1.918   .     S
Ti21   O41     1.929   .     S
Ti21   O45     1.928   .     S
Ti22   Ti63    2.999   1_455 S
Ti22   O33     1.956   .     S
Ti22   O38     2.038   .     S
Ti22   O39     2.018   .     S
Ti22   O42     1.948   .     S
Ti22   O46     2.015   .     S
Ti22   O114    1.879   1_455 S
Ti23   Ti24    2.971   .     S
Ti23   Ti30    2.999   .     S
Ti23   O34     2.058   .     S
Ti23   O35     2.030   .     S
Ti23   O40     1.895   .     S
Ti23   O43     1.936   .     S
Ti23   O55     1.893   .     S
Ti23   O63     2.000   .     S
Ti24   O35     1.838   .     S
Ti24   O36     1.826   .     S
Ti24   O40     2.107   .     S
Ti24   O44     2.047   .     S
Ti24   O48     1.872   .     S
Ti25   O13     1.911   1_565 S
Ti25   O17     1.928   1_565 S
Ti25   O37     1.929   .     S
Ti25   O57     1.911   .     S
Ti25   O58     1.918   .     S
Ti26   Ti27    2.999   .     S
Ti26   Ti49    2.960   .     S
Ti26   O18     2.015   1_565 S
Ti26   O29     1.956   1_565 S
Ti26   O30     1.879   1_565 S
Ti26   O54     1.948   .     S
Ti26   O59     2.018   .     S
Ti26   O106    2.038   .     S
Ti27   Ti28    2.972   .     S
Ti27   O19     2.000   1_565 S
Ti27   O30     2.058   1_565 S
Ti27   O31     2.030   1_565 S
Ti27   O55     1.936   .     S
Ti27   O59     1.893   .     S
Ti27   O60     1.895   .     S
Ti28   O16     1.826   1_565 S
Ti28   O20     1.872   1_565 S
Ti28   O31     1.839   1_565 S
Ti28   O40     2.047   .     S
Ti28   O60     2.108   .     S
Ti29   Ti30    2.960   .     S
Ti29   O49     1.911   .     S
Ti29   O53     1.911   .     S
Ti29   O54     1.918   .     S
Ti29   O57     1.929   .     S
Ti29   O61     1.928   .     S
Ti30   O34     1.879   .     S
Ti30   O49     1.956   .     S
Ti30   O54     2.038   .     S
Ti30   O55     2.018   .     S
Ti30   O58     1.948   .     S
Ti30   O62     2.015   .     S
Ti31   Ti32    2.971   .     S
Ti31   Ti54    2.999   .     S
Ti31   O50     2.058   .     S
Ti31   O51     2.030   .     S
Ti31   O56     1.895   .     S
Ti31   O59     1.936   .     S
Ti31   O103    1.893   .     S
Ti31   O111    2.000   .     S
Ti32   O51     1.838   .     S
Ti32   O52     1.826   .     S
Ti32   O56     2.107   .     S
Ti32   O60     2.047   .     S
Ti32   O64     1.872   .     S
Ti33   O21     1.929   .     S
Ti33   O61     1.911   .     S
Ti33   O73     1.911   .     S
Ti33   O74     1.918   .     S
Ti33   O97     1.929   .     S
Ti34   Ti35    2.999   .     S
Ti34   Ti41    2.960   .     S
Ti34   O70     1.948   .     S
Ti34   O75     2.018   .     S
Ti34   O90     2.038   .     S
Ti34   O98     2.015   .     S
Ti34   O109    1.956   .     S
Ti34   O110    1.879   .     S
Ti35   Ti36    2.972   .     S
Ti35   O71     1.936   .     S
Ti35   O75     1.893   .     S
Ti35   O76     1.895   .     S
Ti35   O99     2.000   .     S
Ti35   O110    2.058   .     S
Ti35   O111    2.030   .     S
Ti36   O24     2.047   .     S
Ti36   O64     1.826   .     S
Ti36   O76     2.108   .     S
Ti36   O100    1.872   .     S
Ti36   O111    1.839   .     S
Ti37   Ti38    2.960   .     S
Ti37   O65     1.911   .     S
Ti37   O69     1.911   .     S
Ti37   O70     1.918   .     S
Ti37   O73     1.929   .     S
Ti37   O77     1.928   .     S
Ti38   O18     1.879   .     S
Ti38   O65     1.956   .     S
Ti38   O70     2.038   .     S
Ti38   O71     2.018   .     S
Ti38   O74     1.948   .     S
Ti38   O78     2.015   .     S
Ti39   Ti40    2.971   .     S
Ti39   Ti46    2.999   .     S
Ti39   O66     2.058   .     S
Ti39   O67     2.030   .     S
Ti39   O72     1.895   .     S
Ti39   O75     1.936   .     S
Ti39   O87     1.893   .     S
Ti39   O95     2.000   .     S
Ti40   O67     1.839   .     S
Ti40   O68     1.826   .     S
Ti40   O72     2.107   .     S
Ti40   O76     2.047   .     S
Ti40   O80     1.872   .     S
Ti41   O69     1.929   .     S
Ti41   O89     1.911   .     S
Ti41   O90     1.918   .     S
Ti41   O109    1.911   .     S
Ti41   O113    1.928   .     S
Ti42   Ti1     2.960   1_655 S
Ti42   Ti43    2.999   .     S
Ti42   O10     2.038   1_655 S
Ti42   O86     1.948   .     S
Ti42   O91     2.018   .     S
Ti42   O114    2.015   .     S
Ti42   O125    1.956   .     S
Ti42   O126    1.879   .     S
Ti43   Ti44    2.972   .     S
Ti43   O87     1.936   .     S
Ti43   O91     1.893   .     S
Ti43   O92     1.895   .     S
Ti43   O115    2.000   .     S
Ti43   O126    2.058   .     S
Ti43   O127    2.030   .     S
Ti44   O72     2.047   .     S
Ti44   O92     2.108   .     S
Ti44   O112    1.826   .     S
Ti44   O116    1.872   .     S
Ti44   O127    1.839   .     S
Ti44   O       1.841   .     S
Ti45   Ti46    2.960   .     S
Ti45   O81     1.911   .     S
Ti45   O85     1.911   .     S
Ti45   O86     1.918   .     S
Ti45   O89     1.929   .     S
Ti45   O93     1.928   .     S
Ti46   O66     1.879   .     S
Ti46   O81     1.956   .     S
Ti46   O86     2.038   .     S
Ti46   O87     2.018   .     S
Ti46   O90     1.948   .     S
Ti46   O94     2.015   .     S
Ti47   Ti6     2.999   1_655 S
Ti47   Ti48    2.971   .     S
Ti47   O7      1.893   1_655 S
Ti47   O15     2.000   1_655 S
Ti47   O82     2.058   .     S
Ti47   O83     2.030   .     S
Ti47   O88     1.895   .     S
Ti47   O91     1.936   .     S
Ti48   O83     1.838   .     S
Ti48   O84     1.826   .     S
Ti48   O88     2.107   .     S
Ti48   O92     2.047   .     S
Ti48   O96     1.872   .     S
Ti49   O29     1.911   1_565 S
Ti49   O53     1.929   .     S
Ti49   O65     1.929   1_565 S
Ti49   O105    1.911   .     S
Ti49   O106    1.918   .     S
Ti50   Ti51    2.999   .     S
Ti50   Ti57    2.960   .     S
Ti50   O66     2.015   1_565 S
Ti50   O77     1.956   1_565 S
Ti50   O78     1.879   1_565 S
Ti50   O102    1.948   .     S
Ti50   O107    2.018   .     S
Ti50   O122    2.038   .     S
Ti51   Ti52    2.972   .     S
Ti51   O67     2.000   1_565 S
Ti51   O78     2.058   1_565 S
Ti51   O79     2.030   1_565 S
Ti51   O103    1.936   .     S
Ti51   O107    1.893   .     S
Ti51   O108    1.895   .     S
Ti52   O32     1.826   1_565 S
Ti52   O56     2.047   .     S
Ti52   O68     1.872   1_565 S
Ti52   O79     1.839   1_565 S
Ti52   O108    2.108   .     S
Ti53   Ti54    2.960   .     S
Ti53   O97     1.911   .     S
Ti53   O101    1.911   .     S
Ti53   O102    1.918   .     S
Ti53   O105    1.929   .     S
Ti53   O109    1.928   .     S
Ti54   O50     1.879   .     S
Ti54   O97     1.956   .     S
Ti54   O102    2.038   .     S
Ti54   O103    2.018   .     S
Ti54   O106    1.948   .     S
Ti54   O110    2.015   .     S
Ti55   Ti56    2.971   .     S
Ti55   Ti62    2.999   .     S
Ti55   O98     2.058   .     S
Ti55   O99     2.030   .     S
Ti55   O104    1.895   .     S
Ti55   O107    1.936   .     S
Ti55   O119    1.893   .     S
Ti55   O127    2.000   .     S
Ti56   O99     1.839   .     S
Ti56   O100    1.826   .     S
Ti56   O104    2.107   .     S
Ti56   O108    2.047   .     S
Ti56   O112    1.872   .     S
Ti57   O77     1.911   1_565 S
Ti57   O81     1.928   1_565 S
Ti57   O101    1.929   .     S
Ti57   O121    1.911   .     S
Ti57   O122    1.918   .     S
Ti58   Ti17    2.960   1_655 S
Ti58   Ti59    2.999   .     S
Ti58   O42     2.038   1_655 S
Ti58   O82     2.015   1_565 S
Ti58   O93     1.956   1_565 S
Ti58   O94     1.879   1_565 S
Ti58   O118    1.948   .     S
Ti58   O123    2.018   .     S
Ti59   Ti60    2.972   .     S
Ti59   O83     2.000   1_565 S
Ti59   O94     2.058   1_565 S
Ti59   O95     2.030   1_565 S
Ti59   O119    1.936   .     S
Ti59   O123    1.893   .     S
Ti59   O124    1.895   .     S
Ti60   O80     1.826   1_565 S
Ti60   O84     1.872   1_565 S
Ti60   O95     1.839   1_565 S
Ti60   O104    2.047   .     S
Ti60   O124    2.108   .     S
Ti61   Ti62    2.960   .     S
Ti61   O113    1.911   .     S
Ti61   O117    1.911   .     S
Ti61   O118    1.918   .     S
Ti61   O121    1.929   .     S
Ti61   O125    1.928   .     S
Ti62   O98     1.879   .     S
Ti62   O113    1.956   .     S
Ti62   O118    2.038   .     S
Ti62   O119    2.018   .     S
Ti62   O122    1.948   .     S
Ti62   O126    2.015   .     S
Ti63   Ti22    2.999   1_655 S
Ti63   Ti64    2.971   .     S
Ti63   O39     1.893   1_655 S
Ti63   O47     2.000   1_655 S
Ti63   O114    2.058   .     S
Ti63   O115    2.030   .     S
Ti63   O120    1.895   .     S
Ti63   O123    1.936   .     S
Ti64   O115    1.838   .     S
Ti64   O116    1.826   .     S
Ti64   O120    2.107   .     S
Ti64   O124    2.047   .     S
Ti64   O128    1.872   .     S
O1     Ti17    1.929   1_545 S
O2     Ti18    2.015   1_545 S
O3     Ti19    2.000   1_545 S
O4     Ti20    1.872   1_545 S
O7     Ti47    1.893   1_455 S
O10    Ti42    2.038   1_455 S
O13    Ti25    1.911   1_545 S
O13    Ti18    1.956   1_545 S
O14    Ti19    2.058   1_545 S
O14    Ti18    1.879   1_545 S
O15    Ti20    1.839   1_545 S
O15    Ti47    2.000   1_455 S
O15    Ti19    2.030   1_545 S
O16    Ti28    1.826   1_545 S
O17    Ti25    1.928   1_545 S
O18    Ti26    2.015   1_545 S
O19    Ti27    2.000   1_545 S
O20    Ti28    1.872   1_545 S
O29    Ti26    1.956   1_545 S
O29    Ti49    1.911   1_545 S
O30    Ti27    2.058   1_545 S
O30    Ti26    1.879   1_545 S
O31    Ti28    1.839   1_545 S
O31    Ti27    2.030   1_545 S
O32    Ti52    1.826   1_545 S
O39    Ti63    1.893   1_455 S
O42    Ti58    2.038   1_455 S
O47    Ti63    2.000   1_455 S
O65    Ti49    1.929   1_545 S
O66    Ti50    2.015   1_545 S
O67    Ti51    2.000   1_545 S
O68    Ti52    1.872   1_545 S
O77    Ti50    1.956   1_545 S
O77    Ti57    1.911   1_545 S
O78    Ti51    2.058   1_545 S
O78    Ti50    1.879   1_545 S
O79    Ti52    1.839   1_545 S
O79    Ti51    2.030   1_545 S
O80    Ti60    1.826   1_545 S
O81    Ti57    1.928   1_545 S
O82    Ti6     1.879   1_655 S
O82    Ti58    2.015   1_545 S
O83    Ti59    2.000   1_545 S
O84    Ti60    1.872   1_545 S
O85    Ti1     1.929   1_655 S
O88    Ti4     2.047   1_655 S
O93    Ti58    1.956   1_545 S
O93    Ti17    1.911   1_645 S
O94    Ti59    2.058   1_545 S
O94    Ti58    1.879   1_545 S
O95    Ti60    1.839   1_545 S
O95    Ti59    2.030   1_545 S
O96    Ti20    1.826   1_645 S
O112   O       1.266   .     D
O114   Ti22    1.879   1_655 S
O117   Ti17    1.929   1_655 S
O120   Ti20    2.047   1_655 S
O125   Ti1     1.911   1_655 S
O128   Ti4     1.826   1_655 S
