data_CONTCAR
_audit_creation_date              2022-02-10
_audit_creation_method            'Materials Studio'
_symmetry_space_group_name_H-M    'P1'
_symmetry_Int_Tables_number       1
_symmetry_cell_setting            triclinic
loop_
_symmetry_equiv_pos_as_xyz
  x,y,z
_cell_length_a                    11.7841
_cell_length_b                    13.0141
_cell_length_c                    25.6680
_cell_angle_alpha                 90.0000
_cell_angle_beta                  90.0000
_cell_angle_gamma                 90.0000
loop_
_atom_site_label
_atom_site_type_symbol
_atom_site_fract_x
_atom_site_fract_y
_atom_site_fract_z
_atom_site_U_iso_or_equiv
_atom_site_adp_type
_atom_site_occupancy
Ti1    Ti    0.12500   0.16866   0.04649   0.00000  Uiso   1.00
Ti2    Ti    0.12500   0.41866   0.16610   0.00000  Uiso   1.00
Ti3    Ti    0.12500   0.16866   0.31212   0.00000  Uiso   1.00
Ti4    Ti    0.12500   0.41866   0.42386   0.00000  Uiso   1.00
Ti5    Ti    0.00000   0.41866   0.04649   0.00000  Uiso   1.00
Ti6    Ti    0.00000   0.16866   0.17552   0.00000  Uiso   1.00
Ti7    Ti    0.00000   0.41866   0.29722   0.00000  Uiso   1.00
Ti8    Ti    0.00000   0.16866   0.44284   0.00000  Uiso   1.00
Ti9    Ti    0.37500   0.16866   0.04649   0.00000  Uiso   1.00
Ti10   Ti    0.37500   0.41866   0.16610   0.00000  Uiso   1.00
Ti11   Ti    0.37500   0.16866   0.31212   0.00000  Uiso   1.00
Ti12   Ti    0.37500   0.41866   0.42386   0.00000  Uiso   1.00
Ti13   Ti    0.25000   0.41866   0.04649   0.00000  Uiso   1.00
Ti14   Ti    0.25000   0.16866   0.17552   0.00000  Uiso   1.00
Ti15   Ti    0.25000   0.41866   0.29722   0.00000  Uiso   1.00
Ti16   Ti    0.25000   0.16866   0.44284   0.00000  Uiso   1.00
Ti17   Ti    0.12500   0.66866   0.04649   0.00000  Uiso   1.00
Ti18   Ti    0.12500   0.91866   0.16610   0.00000  Uiso   1.00
Ti19   Ti    0.12500   0.66866   0.31212   0.00000  Uiso   1.00
Ti20   Ti    0.12500   0.91866   0.42386   0.00000  Uiso   1.00
Ti21   Ti    0.00000   0.91866   0.04649   0.00000  Uiso   1.00
Ti22   Ti    0.00000   0.66866   0.17552   0.00000  Uiso   1.00
Ti23   Ti    0.00000   0.91866   0.29722   0.00000  Uiso   1.00
Ti24   Ti    0.00000   0.66866   0.44284   0.00000  Uiso   1.00
Ti25   Ti    0.37500   0.66866   0.04649   0.00000  Uiso   1.00
Ti26   Ti    0.37500   0.91866   0.16610   0.00000  Uiso   1.00
Ti27   Ti    0.37500   0.66866   0.31212   0.00000  Uiso   1.00
Ti28   Ti    0.37500   0.91866   0.42386   0.00000  Uiso   1.00
Ti29   Ti    0.25000   0.91866   0.04649   0.00000  Uiso   1.00
Ti30   Ti    0.25000   0.66866   0.17552   0.00000  Uiso   1.00
Ti31   Ti    0.25000   0.91866   0.29722   0.00000  Uiso   1.00
Ti32   Ti    0.25000   0.66866   0.44284   0.00000  Uiso   1.00
Ti33   Ti    0.62500   0.16866   0.04649   0.00000  Uiso   1.00
Ti34   Ti    0.62500   0.41866   0.16610   0.00000  Uiso   1.00
Ti35   Ti    0.62500   0.16866   0.31212   0.00000  Uiso   1.00
Ti36   Ti    0.62500   0.41866   0.42386   0.00000  Uiso   1.00
Ti37   Ti    0.50000   0.41866   0.04649   0.00000  Uiso   1.00
Ti38   Ti    0.50000   0.16866   0.17552   0.00000  Uiso   1.00
Ti39   Ti    0.50000   0.41866   0.29722   0.00000  Uiso   1.00
Ti40   Ti    0.50000   0.16866   0.44284   0.00000  Uiso   1.00
Ti41   Ti    0.87500   0.16866   0.04649   0.00000  Uiso   1.00
Ti42   Ti    0.87500   0.41866   0.16610   0.00000  Uiso   1.00
Ti43   Ti    0.87500   0.16866   0.31212   0.00000  Uiso   1.00
Ti44   Ti    0.87500   0.41866   0.42386   0.00000  Uiso   1.00
Ti45   Ti    0.75000   0.41866   0.04649   0.00000  Uiso   1.00
Ti46   Ti    0.75000   0.16866   0.17552   0.00000  Uiso   1.00
Ti47   Ti    0.75000   0.41866   0.29722   0.00000  Uiso   1.00
Ti48   Ti    0.75000   0.16866   0.44284   0.00000  Uiso   1.00
Ti49   Ti    0.62500   0.66866   0.04649   0.00000  Uiso   1.00
Ti50   Ti    0.62500   0.91866   0.16610   0.00000  Uiso   1.00
Ti51   Ti    0.62500   0.66866   0.31212   0.00000  Uiso   1.00
Ti52   Ti    0.62500   0.91866   0.42386   0.00000  Uiso   1.00
Ti53   Ti    0.50000   0.91866   0.04649   0.00000  Uiso   1.00
Ti54   Ti    0.50000   0.66866   0.17552   0.00000  Uiso   1.00
Ti55   Ti    0.50000   0.91866   0.29722   0.00000  Uiso   1.00
Ti56   Ti    0.50000   0.66866   0.44284   0.00000  Uiso   1.00
Ti57   Ti    0.87500   0.66866   0.04649   0.00000  Uiso   1.00
Ti58   Ti    0.87500   0.91866   0.16610   0.00000  Uiso   1.00
Ti59   Ti    0.87500   0.66866   0.31212   0.00000  Uiso   1.00
Ti60   Ti    0.87500   0.91866   0.42386   0.00000  Uiso   1.00
Ti61   Ti    0.75000   0.91866   0.04649   0.00000  Uiso   1.00
Ti62   Ti    0.75000   0.66866   0.17552   0.00000  Uiso   1.00
Ti63   Ti    0.75000   0.91866   0.29722   0.00000  Uiso   1.00
Ti64   Ti    0.75000   0.66866   0.44284   0.00000  Uiso   1.00
O1     O     0.12500   0.41866   0.00000   0.00000  Uiso   1.00
O2     O     0.12500   0.16866   0.12004   0.00000  Uiso   1.00
O3     O     0.12500   0.41866   0.25217   0.00000  Uiso   1.00
O4     O     0.12500   0.16866   0.38351   0.00000  Uiso   1.00
O5     O     0.12500   0.41866   0.09297   0.00000  Uiso   1.00
O6     O     0.12500   0.16866   0.22160   0.00000  Uiso   1.00
O7     O     0.12500   0.41866   0.35352   0.00000  Uiso   1.00
O8     O     0.12500   0.16866   0.48500   0.00000  Uiso   1.00
O9     O     0.00000   0.26626   0.04649   0.00000  Uiso   1.00
O10    O     0.00000   0.01599   0.17226   0.00000  Uiso   1.00
O11    O     0.00000   0.26730   0.30370   0.00000  Uiso   1.00
O12    O     0.00000   0.01309   0.43839   0.00000  Uiso   1.00
O13    O     0.00000   0.07106   0.04649   0.00000  Uiso   1.00
O14    O     0.00000   0.32133   0.17226   0.00000  Uiso   1.00
O15    O     0.00000   0.07002   0.30370   0.00000  Uiso   1.00
O16    O     0.00000   0.32423   0.43839   0.00000  Uiso   1.00
O17    O     0.37500   0.41866   0.00000   0.00000  Uiso   1.00
O18    O     0.37500   0.16866   0.12004   0.00000  Uiso   1.00
O19    O     0.37500   0.41866   0.25217   0.00000  Uiso   1.00
O20    O     0.37500   0.16866   0.38351   0.00000  Uiso   1.00
O21    O     0.37500   0.41866   0.09297   0.00000  Uiso   1.00
O22    O     0.37500   0.16866   0.22160   0.00000  Uiso   1.00
O23    O     0.37500   0.41866   0.35352   0.00000  Uiso   1.00
O24    O     0.37500   0.16866   0.48500   0.00000  Uiso   1.00
O25    O     0.25000   0.26626   0.04649   0.00000  Uiso   1.00
O26    O     0.25000   0.01599   0.17226   0.00000  Uiso   1.00
O27    O     0.25000   0.26730   0.30370   0.00000  Uiso   1.00
O28    O     0.25000   0.01309   0.43839   0.00000  Uiso   1.00
O29    O     0.25000   0.07106   0.04649   0.00000  Uiso   1.00
O30    O     0.25000   0.32133   0.17226   0.00000  Uiso   1.00
O31    O     0.25000   0.07002   0.30370   0.00000  Uiso   1.00
O32    O     0.25000   0.32423   0.43839   0.00000  Uiso   1.00
O33    O     0.12500   0.91866   0.00000   0.00000  Uiso   1.00
O34    O     0.12500   0.66866   0.12004   0.00000  Uiso   1.00
O35    O     0.12500   0.91866   0.25217   0.00000  Uiso   1.00
O36    O     0.12500   0.66866   0.38351   0.00000  Uiso   1.00
O37    O     0.12500   0.91866   0.09297   0.00000  Uiso   1.00
O38    O     0.12500   0.66866   0.22160   0.00000  Uiso   1.00
O39    O     0.12500   0.91866   0.35352   0.00000  Uiso   1.00
O40    O     0.12500   0.66866   0.48500   0.00000  Uiso   1.00
O41    O     0.00000   0.76626   0.04649   0.00000  Uiso   1.00
O42    O     0.00000   0.51599   0.17226   0.00000  Uiso   1.00
O43    O     0.00000   0.76730   0.30370   0.00000  Uiso   1.00
O44    O     0.00000   0.51309   0.43839   0.00000  Uiso   1.00
O45    O     0.00000   0.57106   0.04649   0.00000  Uiso   1.00
O46    O     0.00000   0.82133   0.17226   0.00000  Uiso   1.00
O47    O     0.00000   0.57002   0.30370   0.00000  Uiso   1.00
O48    O     0.00000   0.82423   0.43839   0.00000  Uiso   1.00
O49    O     0.37500   0.91866   0.00000   0.00000  Uiso   1.00
O50    O     0.37500   0.66866   0.12004   0.00000  Uiso   1.00
O51    O     0.37500   0.91866   0.25217   0.00000  Uiso   1.00
O52    O     0.37500   0.66866   0.38351   0.00000  Uiso   1.00
O53    O     0.37500   0.91866   0.09297   0.00000  Uiso   1.00
O54    O     0.37500   0.66866   0.22160   0.00000  Uiso   1.00
O55    O     0.37500   0.91866   0.35352   0.00000  Uiso   1.00
O56    O     0.37500   0.66866   0.48500   0.00000  Uiso   1.00
O57    O     0.25000   0.76626   0.04649   0.00000  Uiso   1.00
O58    O     0.25000   0.51599   0.17226   0.00000  Uiso   1.00
O59    O     0.25000   0.76730   0.30370   0.00000  Uiso   1.00
O60    O     0.25000   0.51309   0.43839   0.00000  Uiso   1.00
O61    O     0.25000   0.57106   0.04649   0.00000  Uiso   1.00
O62    O     0.25000   0.82133   0.17226   0.00000  Uiso   1.00
O63    O     0.25000   0.57002   0.30370   0.00000  Uiso   1.00
O64    O     0.25000   0.82423   0.43839   0.00000  Uiso   1.00
O65    O     0.62500   0.41866   0.00000   0.00000  Uiso   1.00
O66    O     0.62500   0.16866   0.12004   0.00000  Uiso   1.00
O67    O     0.62500   0.41866   0.25217   0.00000  Uiso   1.00
O68    O     0.62500   0.16866   0.38351   0.00000  Uiso   1.00
O69    O     0.62500   0.41866   0.09297   0.00000  Uiso   1.00
O70    O     0.62500   0.16866   0.22160   0.00000  Uiso   1.00
O71    O     0.62500   0.41866   0.35352   0.00000  Uiso   1.00
O72    O     0.62500   0.16866   0.48500   0.00000  Uiso   1.00
O73    O     0.50000   0.26626   0.04649   0.00000  Uiso   1.00
O74    O     0.50000   0.01599   0.17226   0.00000  Uiso   1.00
O75    O     0.50000   0.26730   0.30370   0.00000  Uiso   1.00
O76    O     0.50000   0.01309   0.43839   0.00000  Uiso   1.00
O77    O     0.50000   0.07106   0.04649   0.00000  Uiso   1.00
O78    O     0.50000   0.32133   0.17226   0.00000  Uiso   1.00
O79    O     0.50000   0.07002   0.30370   0.00000  Uiso   1.00
O80    O     0.50000   0.32423   0.43839   0.00000  Uiso   1.00
O81    O     0.87500   0.41866   0.00000   0.00000  Uiso   1.00
O82    O     0.87500   0.16866   0.12004   0.00000  Uiso   1.00
O83    O     0.87500   0.41866   0.25217   0.00000  Uiso   1.00
O84    O     0.87500   0.16866   0.38351   0.00000  Uiso   1.00
O85    O     0.87500   0.41866   0.09297   0.00000  Uiso   1.00
O86    O     0.87500   0.16866   0.22160   0.00000  Uiso   1.00
O87    O     0.87500   0.41866   0.35352   0.00000  Uiso   1.00
O88    O     0.87500   0.16866   0.48500   0.00000  Uiso   1.00
O89    O     0.75000   0.26626   0.04649   0.00000  Uiso   1.00
O90    O     0.75000   0.01599   0.17226   0.00000  Uiso   1.00
O91    O     0.75000   0.26730   0.30370   0.00000  Uiso   1.00
O92    O     0.75000   0.01309   0.43839   0.00000  Uiso   1.00
O93    O     0.75000   0.07106   0.04649   0.00000  Uiso   1.00
O94    O     0.75000   0.32133   0.17226   0.00000  Uiso   1.00
O95    O     0.75000   0.07002   0.30370   0.00000  Uiso   1.00
O96    O     0.75000   0.32423   0.43839   0.00000  Uiso   1.00
O97    O     0.62500   0.91866   0.00000   0.00000  Uiso   1.00
O98    O     0.62500   0.66866   0.12004   0.00000  Uiso   1.00
O99    O     0.62500   0.91866   0.25217   0.00000  Uiso   1.00
O100   O     0.62500   0.66866   0.38351   0.00000  Uiso   1.00
O101   O     0.62500   0.91866   0.09297   0.00000  Uiso   1.00
O102   O     0.62500   0.66866   0.22160   0.00000  Uiso   1.00
O103   O     0.62500   0.91866   0.35352   0.00000  Uiso   1.00
O104   O     0.62500   0.66866   0.48500   0.00000  Uiso   1.00
O105   O     0.50000   0.76626   0.04649   0.00000  Uiso   1.00
O106   O     0.50000   0.51599   0.17226   0.00000  Uiso   1.00
O107   O     0.50000   0.76730   0.30370   0.00000  Uiso   1.00
O108   O     0.50000   0.51309   0.43839   0.00000  Uiso   1.00
O109   O     0.50000   0.57106   0.04649   0.00000  Uiso   1.00
O110   O     0.50000   0.82133   0.17226   0.00000  Uiso   1.00
O111   O     0.50000   0.57002   0.30370   0.00000  Uiso   1.00
O112   O     0.50000   0.82423   0.43839   0.00000  Uiso   1.00
O113   O     0.87500   0.91866   0.00000   0.00000  Uiso   1.00
O114   O     0.87500   0.66866   0.12004   0.00000  Uiso   1.00
O115   O     0.87500   0.91866   0.25217   0.00000  Uiso   1.00
O116   O     0.87500   0.66866   0.38351   0.00000  Uiso   1.00
O117   O     0.87500   0.91866   0.09297   0.00000  Uiso   1.00
O118   O     0.87500   0.66866   0.22160   0.00000  Uiso   1.00
O119   O     0.87500   0.91866   0.35352   0.00000  Uiso   1.00
O120   O     0.87500   0.66866   0.48500   0.00000  Uiso   1.00
O121   O     0.75000   0.76626   0.04649   0.00000  Uiso   1.00
O122   O     0.75000   0.51599   0.17226   0.00000  Uiso   1.00
O123   O     0.75000   0.76730   0.30370   0.00000  Uiso   1.00
O124   O     0.75000   0.51309   0.43839   0.00000  Uiso   1.00
O125   O     0.75000   0.57106   0.04649   0.00000  Uiso   1.00
O126   O     0.75000   0.82133   0.17226   0.00000  Uiso   1.00
O127   O     0.75000   0.57002   0.30370   0.00000  Uiso   1.00
O128   O     0.75000   0.82423   0.43839   0.00000  Uiso   1.00
O      O     0.87198   0.41696   0.50176   0.00000  Uiso   1.00
loop_
_geom_bond_atom_site_label_1
_geom_bond_atom_site_label_2
_geom_bond_distance
_geom_bond_site_symmetry_2
_ccdc_geom_bond_type
Ti1    Ti9     2.946   .     S
Ti1    Ti41    2.946   1_455 S
Ti1    O2      1.888   .     S
Ti1    O9      1.945   .     S
Ti1    O13     1.945   .     S
Ti1    O25     1.945   .     S
Ti1    O29     1.945   .     S
Ti2    Ti10    2.946   .     S
Ti2    Ti42    2.946   1_455 S
Ti2    O3      2.209   .     S
Ti2    O5      1.877   .     S
Ti2    O14     1.949   .     S
Ti2    O30     1.949   .     S
Ti2    O42     1.949   .     S
Ti2    O58     1.949   .     S
Ti3    Ti11    2.946   .     S
Ti3    Ti43    2.946   1_455 S
Ti3    O4      1.832   .     S
Ti3    O6      2.324   .     S
Ti3    O11     1.966   .     S
Ti3    O15     1.966   .     S
Ti3    O27     1.966   .     S
Ti3    O31     1.966   .     S
Ti4    Ti12    2.946   .     S
Ti4    Ti44    2.946   1_455 S
Ti4    O7      1.805   .     S
Ti4    O16     1.954   .     S
Ti4    O32     1.954   .     S
Ti4    O44     1.954   .     S
Ti4    O60     1.954   .     S
Ti5    Ti13    2.946   .     S
Ti5    Ti45    2.946   1_455 S
Ti5    O1      1.896   .     S
Ti5    O5      1.896   .     S
Ti5    O9      1.983   .     S
Ti5    O45     1.983   .     S
Ti5    O81     1.896   1_455 S
Ti5    O85     1.896   1_455 S
Ti6    Ti14    2.946   .     S
Ti6    Ti46    2.946   1_455 S
Ti6    O2      2.049   .     S
Ti6    O6      1.889   .     S
Ti6    O10     1.989   .     S
Ti6    O14     1.989   .     S
Ti6    O82     2.049   1_455 S
Ti6    O86     1.889   1_455 S
Ti7    Ti15    2.946   .     S
Ti7    Ti47    2.946   1_455 S
Ti7    O3      1.873   .     S
Ti7    O7      2.064   .     S
Ti7    O11     1.977   .     S
Ti7    O47     1.977   .     S
Ti7    O83     1.873   1_455 S
Ti7    O87     2.064   1_455 S
Ti8    Ti16    2.946   .     S
Ti8    Ti48    2.946   1_455 S
Ti8    O4      2.119   .     S
Ti8    O8      1.828   .     S
Ti8    O12     2.028   .     S
Ti8    O16     2.028   .     S
Ti8    O84     2.119   1_455 S
Ti8    O88     1.828   1_455 S
Ti9    Ti33    2.946   .     S
Ti9    O18     1.888   .     S
Ti9    O25     1.945   .     S
Ti9    O29     1.945   .     S
Ti9    O73     1.945   .     S
Ti9    O77     1.945   .     S
Ti10   Ti34    2.946   .     S
Ti10   O19     2.209   .     S
Ti10   O21     1.877   .     S
Ti10   O30     1.949   .     S
Ti10   O58     1.949   .     S
Ti10   O78     1.949   .     S
Ti10   O106    1.949   .     S
Ti11   Ti35    2.946   .     S
Ti11   O20     1.832   .     S
Ti11   O22     2.324   .     S
Ti11   O27     1.966   .     S
Ti11   O31     1.966   .     S
Ti11   O75     1.966   .     S
Ti11   O79     1.966   .     S
Ti12   Ti36    2.946   .     S
Ti12   O23     1.805   .     S
Ti12   O32     1.954   .     S
Ti12   O60     1.954   .     S
Ti12   O80     1.954   .     S
Ti12   O108    1.954   .     S
Ti13   Ti37    2.946   .     S
Ti13   O1      1.896   .     S
Ti13   O5      1.896   .     S
Ti13   O17     1.896   .     S
Ti13   O21     1.896   .     S
Ti13   O25     1.983   .     S
Ti13   O61     1.983   .     S
Ti14   Ti38    2.946   .     S
Ti14   O2      2.049   .     S
Ti14   O6      1.889   .     S
Ti14   O18     2.049   .     S
Ti14   O22     1.889   .     S
Ti14   O26     1.989   .     S
Ti14   O30     1.989   .     S
Ti15   Ti39    2.946   .     S
Ti15   O3      1.873   .     S
Ti15   O7      2.064   .     S
Ti15   O19     1.873   .     S
Ti15   O23     2.064   .     S
Ti15   O27     1.977   .     S
Ti15   O63     1.977   .     S
Ti16   Ti40    2.946   .     S
Ti16   O4      2.119   .     S
Ti16   O8      1.828   .     S
Ti16   O20     2.119   .     S
Ti16   O24     1.828   .     S
Ti16   O28     2.028   .     S
Ti16   O32     2.028   .     S
Ti17   Ti25    2.946   .     S
Ti17   Ti57    2.946   1_455 S
Ti17   O34     1.888   .     S
Ti17   O41     1.945   .     S
Ti17   O45     1.945   .     S
Ti17   O57     1.945   .     S
Ti17   O61     1.945   .     S
Ti18   Ti26    2.946   .     S
Ti18   Ti58    2.946   1_455 S
Ti18   O10     1.949   1_565 S
Ti18   O26     1.949   1_565 S
Ti18   O35     2.209   .     S
Ti18   O37     1.877   .     S
Ti18   O46     1.949   .     S
Ti18   O62     1.949   .     S
Ti19   Ti27    2.946   .     S
Ti19   Ti59    2.946   1_455 S
Ti19   O36     1.832   .     S
Ti19   O38     2.324   .     S
Ti19   O43     1.966   .     S
Ti19   O47     1.966   .     S
Ti19   O59     1.966   .     S
Ti19   O63     1.966   .     S
Ti20   Ti28    2.946   .     S
Ti20   Ti60    2.946   1_455 S
Ti20   O12     1.954   1_565 S
Ti20   O28     1.954   1_565 S
Ti20   O39     1.805   .     S
Ti20   O48     1.954   .     S
Ti20   O64     1.954   .     S
Ti21   Ti29    2.946   .     S
Ti21   Ti61    2.946   1_455 S
Ti21   O13     1.983   1_565 S
Ti21   O33     1.896   .     S
Ti21   O37     1.896   .     S
Ti21   O41     1.983   .     S
Ti21   O113    1.896   1_455 S
Ti21   O117    1.896   1_455 S
Ti22   Ti30    2.946   .     S
Ti22   Ti62    2.946   1_455 S
Ti22   O34     2.049   .     S
Ti22   O38     1.889   .     S
Ti22   O42     1.989   .     S
Ti22   O46     1.989   .     S
Ti22   O114    2.049   1_455 S
Ti22   O118    1.889   1_455 S
Ti23   Ti31    2.946   .     S
Ti23   Ti63    2.946   1_455 S
Ti23   O15     1.977   1_565 S
Ti23   O35     1.873   .     S
Ti23   O39     2.064   .     S
Ti23   O43     1.977   .     S
Ti23   O115    1.873   1_455 S
Ti23   O119    2.064   1_455 S
Ti24   Ti32    2.946   .     S
Ti24   Ti64    2.946   1_455 S
Ti24   O36     2.119   .     S
Ti24   O40     1.828   .     S
Ti24   O44     2.028   .     S
Ti24   O48     2.028   .     S
Ti24   O116    2.119   1_455 S
Ti24   O120    1.828   1_455 S
Ti25   Ti49    2.946   .     S
Ti25   O50     1.888   .     S
Ti25   O57     1.945   .     S
Ti25   O61     1.945   .     S
Ti25   O105    1.945   .     S
Ti25   O109    1.945   .     S
Ti26   Ti50    2.946   .     S
Ti26   O26     1.949   1_565 S
Ti26   O51     2.209   .     S
Ti26   O53     1.877   .     S
Ti26   O62     1.949   .     S
Ti26   O74     1.949   1_565 S
Ti26   O110    1.949   .     S
Ti27   Ti51    2.946   .     S
Ti27   O52     1.832   .     S
Ti27   O54     2.324   .     S
Ti27   O59     1.966   .     S
Ti27   O63     1.966   .     S
Ti27   O107    1.966   .     S
Ti27   O111    1.966   .     S
Ti28   Ti52    2.946   .     S
Ti28   O28     1.954   1_565 S
Ti28   O55     1.805   .     S
Ti28   O64     1.954   .     S
Ti28   O76     1.954   1_565 S
Ti28   O112    1.954   .     S
Ti29   Ti53    2.946   .     S
Ti29   O29     1.983   1_565 S
Ti29   O33     1.896   .     S
Ti29   O37     1.896   .     S
Ti29   O49     1.896   .     S
Ti29   O53     1.896   .     S
Ti29   O57     1.983   .     S
Ti30   Ti54    2.946   .     S
Ti30   O34     2.049   .     S
Ti30   O38     1.889   .     S
Ti30   O50     2.049   .     S
Ti30   O54     1.889   .     S
Ti30   O58     1.989   .     S
Ti30   O62     1.989   .     S
Ti31   Ti55    2.946   .     S
Ti31   O31     1.977   1_565 S
Ti31   O35     1.873   .     S
Ti31   O39     2.064   .     S
Ti31   O51     1.873   .     S
Ti31   O55     2.064   .     S
Ti31   O59     1.977   .     S
Ti32   Ti56    2.946   .     S
Ti32   O36     2.119   .     S
Ti32   O40     1.828   .     S
Ti32   O52     2.119   .     S
Ti32   O56     1.828   .     S
Ti32   O60     2.028   .     S
Ti32   O64     2.028   .     S
Ti33   Ti41    2.946   .     S
Ti33   O66     1.888   .     S
Ti33   O73     1.945   .     S
Ti33   O77     1.945   .     S
Ti33   O89     1.945   .     S
Ti33   O93     1.945   .     S
Ti34   Ti42    2.946   .     S
Ti34   O67     2.209   .     S
Ti34   O69     1.877   .     S
Ti34   O78     1.949   .     S
Ti34   O94     1.949   .     S
Ti34   O106    1.949   .     S
Ti34   O122    1.949   .     S
Ti35   Ti43    2.946   .     S
Ti35   O68     1.832   .     S
Ti35   O70     2.324   .     S
Ti35   O75     1.966   .     S
Ti35   O79     1.966   .     S
Ti35   O91     1.966   .     S
Ti35   O95     1.966   .     S
Ti36   Ti44    2.946   .     S
Ti36   O71     1.805   .     S
Ti36   O80     1.954   .     S
Ti36   O96     1.954   .     S
Ti36   O108    1.954   .     S
Ti36   O124    1.954   .     S
Ti37   Ti45    2.946   .     S
Ti37   O17     1.896   .     S
Ti37   O21     1.896   .     S
Ti37   O65     1.896   .     S
Ti37   O69     1.896   .     S
Ti37   O73     1.983   .     S
Ti37   O109    1.983   .     S
Ti38   Ti46    2.946   .     S
Ti38   O18     2.049   .     S
Ti38   O22     1.889   .     S
Ti38   O66     2.049   .     S
Ti38   O70     1.889   .     S
Ti38   O74     1.989   .     S
Ti38   O78     1.989   .     S
Ti39   Ti47    2.946   .     S
Ti39   O19     1.873   .     S
Ti39   O23     2.064   .     S
Ti39   O67     1.873   .     S
Ti39   O71     2.064   .     S
Ti39   O75     1.977   .     S
Ti39   O111    1.977   .     S
Ti40   Ti48    2.946   .     S
Ti40   O20     2.119   .     S
Ti40   O24     1.828   .     S
Ti40   O68     2.119   .     S
Ti40   O72     1.828   .     S
Ti40   O76     2.028   .     S
Ti40   O80     2.028   .     S
Ti41   Ti1     2.946   1_655 S
Ti41   O9      1.945   1_655 S
Ti41   O13     1.945   1_655 S
Ti41   O82     1.888   .     S
Ti41   O89     1.945   .     S
Ti41   O93     1.945   .     S
Ti42   Ti2     2.946   1_655 S
Ti42   O14     1.949   1_655 S
Ti42   O42     1.949   1_655 S
Ti42   O83     2.209   .     S
Ti42   O85     1.877   .     S
Ti42   O94     1.949   .     S
Ti42   O122    1.949   .     S
Ti43   Ti3     2.946   1_655 S
Ti43   O11     1.966   1_655 S
Ti43   O15     1.966   1_655 S
Ti43   O84     1.832   .     S
Ti43   O86     2.324   .     S
Ti43   O91     1.966   .     S
Ti43   O95     1.966   .     S
Ti44   Ti4     2.946   1_655 S
Ti44   O16     1.954   1_655 S
Ti44   O44     1.954   1_655 S
Ti44   O87     1.805   .     S
Ti44   O96     1.954   .     S
Ti44   O124    1.954   .     S
Ti44   O       2.000   .     S
Ti45   Ti5     2.946   1_655 S
Ti45   O65     1.896   .     S
Ti45   O69     1.896   .     S
Ti45   O81     1.896   .     S
Ti45   O85     1.896   .     S
Ti45   O89     1.983   .     S
Ti45   O125    1.983   .     S
Ti46   Ti6     2.946   1_655 S
Ti46   O66     2.049   .     S
Ti46   O70     1.889   .     S
Ti46   O82     2.049   .     S
Ti46   O86     1.889   .     S
Ti46   O90     1.989   .     S
Ti46   O94     1.989   .     S
Ti47   Ti7     2.946   1_655 S
Ti47   O67     1.873   .     S
Ti47   O71     2.064   .     S
Ti47   O83     1.873   .     S
Ti47   O87     2.064   .     S
Ti47   O91     1.977   .     S
Ti47   O127    1.977   .     S
Ti48   Ti8     2.946   1_655 S
Ti48   O68     2.119   .     S
Ti48   O72     1.828   .     S
Ti48   O84     2.119   .     S
Ti48   O88     1.828   .     S
Ti48   O92     2.028   .     S
Ti48   O96     2.028   .     S
Ti49   Ti57    2.946   .     S
Ti49   O98     1.888   .     S
Ti49   O105    1.945   .     S
Ti49   O109    1.945   .     S
Ti49   O121    1.945   .     S
Ti49   O125    1.945   .     S
Ti50   Ti58    2.946   .     S
Ti50   O74     1.949   1_565 S
Ti50   O90     1.949   1_565 S
Ti50   O99     2.209   .     S
Ti50   O101    1.877   .     S
Ti50   O110    1.949   .     S
Ti50   O126    1.949   .     S
Ti51   Ti59    2.946   .     S
Ti51   O100    1.832   .     S
Ti51   O102    2.324   .     S
Ti51   O107    1.966   .     S
Ti51   O111    1.966   .     S
Ti51   O123    1.966   .     S
Ti51   O127    1.966   .     S
Ti52   Ti60    2.946   .     S
Ti52   O76     1.954   1_565 S
Ti52   O92     1.954   1_565 S
Ti52   O103    1.805   .     S
Ti52   O112    1.954   .     S
Ti52   O128    1.954   .     S
Ti53   Ti61    2.946   .     S
Ti53   O49     1.896   .     S
Ti53   O53     1.896   .     S
Ti53   O77     1.983   1_565 S
Ti53   O97     1.896   .     S
Ti53   O101    1.896   .     S
Ti53   O105    1.983   .     S
Ti54   Ti62    2.946   .     S
Ti54   O50     2.049   .     S
Ti54   O54     1.889   .     S
Ti54   O98     2.049   .     S
Ti54   O102    1.889   .     S
Ti54   O106    1.989   .     S
Ti54   O110    1.989   .     S
Ti55   Ti63    2.946   .     S
Ti55   O51     1.873   .     S
Ti55   O55     2.064   .     S
Ti55   O79     1.977   1_565 S
Ti55   O99     1.873   .     S
Ti55   O103    2.064   .     S
Ti55   O107    1.977   .     S
Ti56   Ti64    2.946   .     S
Ti56   O52     2.119   .     S
Ti56   O56     1.828   .     S
Ti56   O100    2.119   .     S
Ti56   O104    1.828   .     S
Ti56   O108    2.028   .     S
Ti56   O112    2.028   .     S
Ti57   Ti17    2.946   1_655 S
Ti57   O41     1.945   1_655 S
Ti57   O45     1.945   1_655 S
Ti57   O114    1.888   .     S
Ti57   O121    1.945   .     S
Ti57   O125    1.945   .     S
Ti58   Ti18    2.946   1_655 S
Ti58   O10     1.949   1_665 S
Ti58   O46     1.949   1_655 S
Ti58   O90     1.949   1_565 S
Ti58   O115    2.209   .     S
Ti58   O117    1.877   .     S
Ti58   O126    1.949   .     S
Ti59   Ti19    2.946   1_655 S
Ti59   O43     1.966   1_655 S
Ti59   O47     1.966   1_655 S
Ti59   O116    1.832   .     S
Ti59   O118    2.324   .     S
Ti59   O123    1.966   .     S
Ti59   O127    1.966   .     S
Ti60   Ti20    2.946   1_655 S
Ti60   O12     1.954   1_665 S
Ti60   O48     1.954   1_655 S
Ti60   O92     1.954   1_565 S
Ti60   O119    1.805   .     S
Ti60   O128    1.954   .     S
Ti61   Ti21    2.946   1_655 S
Ti61   O93     1.983   1_565 S
Ti61   O97     1.896   .     S
Ti61   O101    1.896   .     S
Ti61   O113    1.896   .     S
Ti61   O117    1.896   .     S
Ti61   O121    1.983   .     S
Ti62   Ti22    2.946   1_655 S
Ti62   O98     2.049   .     S
Ti62   O102    1.889   .     S
Ti62   O114    2.049   .     S
Ti62   O118    1.889   .     S
Ti62   O122    1.989   .     S
Ti62   O126    1.989   .     S
Ti63   Ti23    2.946   1_655 S
Ti63   O95     1.977   1_565 S
Ti63   O99     1.873   .     S
Ti63   O103    2.064   .     S
Ti63   O115    1.873   .     S
Ti63   O119    2.064   .     S
Ti63   O123    1.977   .     S
Ti64   Ti24    2.946   1_655 S
Ti64   O100    2.119   .     S
Ti64   O104    1.828   .     S
Ti64   O116    2.119   .     S
Ti64   O120    1.828   .     S
Ti64   O124    2.028   .     S
Ti64   O128    2.028   .     S
O9     Ti41    1.945   1_455 S
O10    Ti58    1.949   1_445 S
O10    Ti18    1.949   1_545 S
O11    Ti43    1.966   1_455 S
O12    Ti60    1.954   1_445 S
O12    Ti20    1.954   1_545 S
O13    Ti41    1.945   1_455 S
O13    Ti21    1.983   1_545 S
O14    Ti42    1.949   1_455 S
O15    Ti43    1.966   1_455 S
O15    Ti23    1.977   1_545 S
O16    Ti44    1.954   1_455 S
O26    Ti18    1.949   1_545 S
O26    Ti26    1.949   1_545 S
O28    Ti20    1.954   1_545 S
O28    Ti28    1.954   1_545 S
O29    Ti29    1.983   1_545 S
O31    Ti31    1.977   1_545 S
O41    Ti57    1.945   1_455 S
O42    Ti42    1.949   1_455 S
O43    Ti59    1.966   1_455 S
O44    Ti44    1.954   1_455 S
O45    Ti57    1.945   1_455 S
O46    Ti58    1.949   1_455 S
O47    Ti59    1.966   1_455 S
O48    Ti60    1.954   1_455 S
O74    Ti26    1.949   1_545 S
O74    Ti50    1.949   1_545 S
O76    Ti28    1.954   1_545 S
O76    Ti52    1.954   1_545 S
O77    Ti53    1.983   1_545 S
O79    Ti55    1.977   1_545 S
O81    Ti5     1.896   1_655 S
O82    Ti6     2.049   1_655 S
O83    Ti7     1.873   1_655 S
O84    Ti8     2.119   1_655 S
O85    Ti5     1.896   1_655 S
O86    Ti6     1.889   1_655 S
O87    Ti7     2.064   1_655 S
O88    Ti8     1.828   1_655 S
O90    Ti50    1.949   1_545 S
O90    Ti58    1.949   1_545 S
O92    Ti52    1.954   1_545 S
O92    Ti60    1.954   1_545 S
O93    Ti61    1.983   1_545 S
O95    Ti63    1.977   1_545 S
O113   Ti21    1.896   1_655 S
O114   Ti22    2.049   1_655 S
O115   Ti23    1.873   1_655 S
O116   Ti24    2.119   1_655 S
O117   Ti21    1.896   1_655 S
O118   Ti22    1.889   1_655 S
O119   Ti23    2.064   1_655 S
O120   Ti24    1.828   1_655 S
