data_CONTCAR
_audit_creation_date              2022-01-19
_audit_creation_method            'Materials Studio'
_symmetry_space_group_name_H-M    'P1'
_symmetry_Int_Tables_number       1
_symmetry_cell_setting            triclinic
loop_
_symmetry_equiv_pos_as_xyz
  x,y,z
_cell_length_a                    21.8406
_cell_length_b                    9.1068
_cell_length_c                    20.6493
_cell_angle_alpha                 89.9937
_cell_angle_beta                  90.6293
_cell_angle_gamma                 89.9998
loop_
_atom_site_label
_atom_site_type_symbol
_atom_site_fract_x
_atom_site_fract_y
_atom_site_fract_z
_atom_site_U_iso_or_equiv
_atom_site_adp_type
_atom_site_occupancy
Ti1    Ti    0.00873   0.40240   0.03162   0.00000  Uiso   1.00
Ti2    Ti    0.18179   0.40866   0.14869   0.00000  Uiso   1.00
Ti3    Ti    0.11689   0.38784   0.27563   0.00000  Uiso   1.00
Ti4    Ti    0.03936   0.42774   0.39166   0.00000  Uiso   1.00
Ti5    Ti    0.13373   0.15240   0.03162   0.00000  Uiso   1.00
Ti6    Ti    0.05678   0.14605   0.14869   0.00000  Uiso   1.00
Ti7    Ti    0.24188   0.16681   0.27562   0.00000  Uiso   1.00
Ti8    Ti    0.16436   0.12689   0.39165   0.00000  Uiso   1.00
Ti9    Ti    0.25873   0.40240   0.03162   0.00000  Uiso   1.00
Ti10   Ti    0.43179   0.40866   0.14869   0.00000  Uiso   1.00
Ti11   Ti    0.36688   0.38783   0.27562   0.00000  Uiso   1.00
Ti12   Ti    0.28936   0.42774   0.39166   0.00000  Uiso   1.00
Ti13   Ti    0.38373   0.15240   0.03162   0.00000  Uiso   1.00
Ti14   Ti    0.30678   0.14605   0.14869   0.00000  Uiso   1.00
Ti15   Ti    0.49188   0.16682   0.27561   0.00000  Uiso   1.00
Ti16   Ti    0.41436   0.12689   0.39165   0.00000  Uiso   1.00
Ti17   Ti    0.00873   0.90240   0.03162   0.00000  Uiso   1.00
Ti18   Ti    0.18179   0.90866   0.14869   0.00000  Uiso   1.00
Ti19   Ti    0.11689   0.88784   0.27563   0.00000  Uiso   1.00
Ti20   Ti    0.03936   0.92774   0.39166   0.00000  Uiso   1.00
Ti21   Ti    0.13373   0.65240   0.03162   0.00000  Uiso   1.00
Ti22   Ti    0.05678   0.64605   0.14869   0.00000  Uiso   1.00
Ti23   Ti    0.24188   0.66681   0.27562   0.00000  Uiso   1.00
Ti24   Ti    0.16436   0.62689   0.39165   0.00000  Uiso   1.00
Ti25   Ti    0.25873   0.90240   0.03162   0.00000  Uiso   1.00
Ti26   Ti    0.43179   0.90866   0.14869   0.00000  Uiso   1.00
Ti27   Ti    0.36688   0.88783   0.27562   0.00000  Uiso   1.00
Ti28   Ti    0.28936   0.92774   0.39166   0.00000  Uiso   1.00
Ti29   Ti    0.38373   0.65240   0.03162   0.00000  Uiso   1.00
Ti30   Ti    0.30678   0.64605   0.14869   0.00000  Uiso   1.00
Ti31   Ti    0.49188   0.66682   0.27561   0.00000  Uiso   1.00
Ti32   Ti    0.41436   0.62689   0.39165   0.00000  Uiso   1.00
Ti33   Ti    0.50873   0.40240   0.03162   0.00000  Uiso   1.00
Ti34   Ti    0.68179   0.40866   0.14869   0.00000  Uiso   1.00
Ti35   Ti    0.61688   0.38783   0.27562   0.00000  Uiso   1.00
Ti36   Ti    0.53935   0.42775   0.39166   0.00000  Uiso   1.00
Ti37   Ti    0.63373   0.15240   0.03162   0.00000  Uiso   1.00
Ti38   Ti    0.55678   0.14605   0.14870   0.00000  Uiso   1.00
Ti39   Ti    0.74188   0.16682   0.27562   0.00000  Uiso   1.00
Ti40   Ti    0.66437   0.12689   0.39166   0.00000  Uiso   1.00
Ti41   Ti    0.75873   0.40240   0.03162   0.00000  Uiso   1.00
Ti42   Ti    0.93179   0.40866   0.14870   0.00000  Uiso   1.00
Ti43   Ti    0.86688   0.38784   0.27562   0.00000  Uiso   1.00
Ti44   Ti    0.78935   0.42775   0.39166   0.00000  Uiso   1.00
Ti45   Ti    0.88373   0.15240   0.03162   0.00000  Uiso   1.00
Ti46   Ti    0.80678   0.14605   0.14869   0.00000  Uiso   1.00
Ti47   Ti    0.99188   0.16682   0.27562   0.00000  Uiso   1.00
Ti48   Ti    0.91436   0.12689   0.39165   0.00000  Uiso   1.00
Ti49   Ti    0.50873   0.90240   0.03162   0.00000  Uiso   1.00
Ti50   Ti    0.68179   0.90866   0.14869   0.00000  Uiso   1.00
Ti51   Ti    0.61688   0.88783   0.27562   0.00000  Uiso   1.00
Ti52   Ti    0.53935   0.92775   0.39166   0.00000  Uiso   1.00
Ti53   Ti    0.63373   0.65240   0.03162   0.00000  Uiso   1.00
Ti54   Ti    0.55678   0.64605   0.14870   0.00000  Uiso   1.00
Ti55   Ti    0.74188   0.66682   0.27562   0.00000  Uiso   1.00
Ti56   Ti    0.66437   0.62689   0.39166   0.00000  Uiso   1.00
Ti57   Ti    0.75873   0.90240   0.03162   0.00000  Uiso   1.00
Ti58   Ti    0.93179   0.90866   0.14870   0.00000  Uiso   1.00
Ti59   Ti    0.86688   0.88784   0.27562   0.00000  Uiso   1.00
Ti60   Ti    0.78935   0.92775   0.39166   0.00000  Uiso   1.00
Ti61   Ti    0.88373   0.65240   0.03162   0.00000  Uiso   1.00
Ti62   Ti    0.80678   0.64605   0.14869   0.00000  Uiso   1.00
Ti63   Ti    0.99188   0.66682   0.27562   0.00000  Uiso   1.00
Ti64   Ti    0.91436   0.62689   0.39165   0.00000  Uiso   1.00
O65    O     0.06259   0.05480   0.06324   0.00000  Uiso   1.00
O66    O     0.23932   0.05710   0.18851   0.00000  Uiso   1.00
O67    O     0.16951   0.05105   0.30939   0.00000  Uiso   1.00
O68    O     0.09877   0.04509   0.43223   0.00000  Uiso   1.00
O69    O     0.20487   0.25000   0.00000   0.00000  Uiso   1.00
O70    O     0.13416   0.24392   0.11528   0.00000  Uiso   1.00
O71    O     0.06124   0.24918   0.23510   0.00000  Uiso   1.00
O72    O     0.23902   0.25248   0.35916   0.00000  Uiso   1.00
O73    O     0.07987   0.30480   0.00000   0.00000  Uiso   1.00
O74    O     0.00916   0.31081   0.11527   0.00000  Uiso   1.00
O75    O     0.18624   0.30550   0.23511   0.00000  Uiso   1.00
O76    O     0.11402   0.30215   0.35917   0.00000  Uiso   1.00
O77    O     0.18758  -0.00000   0.06324   0.00000  Uiso   1.00
O78    O     0.11431  -0.00241   0.18851   0.00000  Uiso   1.00
O79    O     0.04451   0.00359   0.30938   0.00000  Uiso   1.00
O80    O     0.22377   0.00950   0.43224   0.00000  Uiso   1.00
O81    O     0.31258   0.05480   0.06324   0.00000  Uiso   1.00
O82    O     0.48932   0.05710   0.18851   0.00000  Uiso   1.00
O83    O     0.41951   0.05104   0.30939   0.00000  Uiso   1.00
O84    O     0.34877   0.04508   0.43223   0.00000  Uiso   1.00
O85    O     0.45487   0.25000   0.00000   0.00000  Uiso   1.00
O86    O     0.38416   0.24392   0.11527   0.00000  Uiso   1.00
O87    O     0.31124   0.24918   0.23511   0.00000  Uiso   1.00
O88    O     0.48902   0.25248   0.35916   0.00000  Uiso   1.00
O89    O     0.32987   0.30480   0.00000   0.00000  Uiso   1.00
O90    O     0.25916   0.31082   0.11527   0.00000  Uiso   1.00
O91    O     0.43624   0.30550   0.23511   0.00000  Uiso   1.00
O92    O     0.36402   0.30215   0.35917   0.00000  Uiso   1.00
O93    O     0.43758  -0.00000   0.06324   0.00000  Uiso   1.00
O94    O     0.36431  -0.00241   0.18851   0.00000  Uiso   1.00
O95    O     0.29451   0.00359   0.30938   0.00000  Uiso   1.00
O96    O     0.47377   0.00950   0.43223   0.00000  Uiso   1.00
O97    O     0.06259   0.55480   0.06324   0.00000  Uiso   1.00
O98    O     0.23932   0.55710   0.18851   0.00000  Uiso   1.00
O99    O     0.16951   0.55105   0.30939   0.00000  Uiso   1.00
O100   O     0.09877   0.54509   0.43224   0.00000  Uiso   1.00
O101   O     0.20487   0.75000   0.00000   0.00000  Uiso   1.00
O102   O     0.13416   0.74392   0.11528   0.00000  Uiso   1.00
O103   O     0.06124   0.74918   0.23510   0.00000  Uiso   1.00
O104   O     0.23902   0.75248   0.35916   0.00000  Uiso   1.00
O105   O     0.07987   0.80480   0.00000   0.00000  Uiso   1.00
O106   O     0.00916   0.81081   0.11527   0.00000  Uiso   1.00
O107   O     0.18624   0.80550   0.23511   0.00000  Uiso   1.00
O108   O     0.11402   0.80215   0.35917   0.00000  Uiso   1.00
O109   O     0.18758   0.50000   0.06324   0.00000  Uiso   1.00
O110   O     0.11431   0.49760   0.18851   0.00000  Uiso   1.00
O111   O     0.04451   0.50359   0.30938   0.00000  Uiso   1.00
O112   O     0.22377   0.50950   0.43224   0.00000  Uiso   1.00
O113   O     0.31258   0.55480   0.06324   0.00000  Uiso   1.00
O114   O     0.48932   0.55710   0.18851   0.00000  Uiso   1.00
O115   O     0.41951   0.55104   0.30939   0.00000  Uiso   1.00
O116   O     0.34877   0.54508   0.43223   0.00000  Uiso   1.00
O117   O     0.45487   0.75000   0.00000   0.00000  Uiso   1.00
O118   O     0.38416   0.74392   0.11527   0.00000  Uiso   1.00
O119   O     0.31124   0.74918   0.23511   0.00000  Uiso   1.00
O120   O     0.48902   0.75248   0.35916   0.00000  Uiso   1.00
O121   O     0.32987   0.80480   0.00000   0.00000  Uiso   1.00
O122   O     0.25916   0.81082   0.11527   0.00000  Uiso   1.00
O123   O     0.43624   0.80550   0.23511   0.00000  Uiso   1.00
O124   O     0.36402   0.80215   0.35917   0.00000  Uiso   1.00
O125   O     0.43758   0.50000   0.06324   0.00000  Uiso   1.00
O126   O     0.36431   0.49759   0.18851   0.00000  Uiso   1.00
O127   O     0.29451   0.50358   0.30938   0.00000  Uiso   1.00
O128   O     0.47377   0.50950   0.43223   0.00000  Uiso   1.00
O129   O     0.56259   0.05480   0.06324   0.00000  Uiso   1.00
O130   O     0.73932   0.05710   0.18851   0.00000  Uiso   1.00
O131   O     0.66951   0.05104   0.30939   0.00000  Uiso   1.00
O132   O     0.59877   0.04508   0.43223   0.00000  Uiso   1.00
O133   O     0.70487   0.25000   0.00000   0.00000  Uiso   1.00
O134   O     0.63417   0.24392   0.11528   0.00000  Uiso   1.00
O135   O     0.56124   0.24918   0.23511   0.00000  Uiso   1.00
O136   O     0.73902   0.25248   0.35916   0.00000  Uiso   1.00
O137   O     0.57987   0.30480   0.00000   0.00000  Uiso   1.00
O138   O     0.50916   0.31082   0.11527   0.00000  Uiso   1.00
O139   O     0.68624   0.30550   0.23511   0.00000  Uiso   1.00
O140   O     0.61402   0.30215   0.35917   0.00000  Uiso   1.00
O141   O     0.68758  -0.00000   0.06324   0.00000  Uiso   1.00
O142   O     0.61432  -0.00241   0.18851   0.00000  Uiso   1.00
O143   O     0.54451   0.00359   0.30938   0.00000  Uiso   1.00
O144   O     0.72377   0.00951   0.43224   0.00000  Uiso   1.00
O145   O     0.81258   0.05480   0.06324   0.00000  Uiso   1.00
O146   O     0.98932   0.05710   0.18851   0.00000  Uiso   1.00
O147   O     0.91951   0.05105   0.30939   0.00000  Uiso   1.00
O148   O     0.84877   0.04509   0.43223   0.00000  Uiso   1.00
O149   O     0.95487   0.25000   0.00000   0.00000  Uiso   1.00
O150   O     0.88416   0.24392   0.11527   0.00000  Uiso   1.00
O151   O     0.81124   0.24918   0.23511   0.00000  Uiso   1.00
O152   O     0.98902   0.25248   0.35916   0.00000  Uiso   1.00
O153   O     0.82987   0.30480   0.00000   0.00000  Uiso   1.00
O154   O     0.75916   0.31082   0.11527   0.00000  Uiso   1.00
O155   O     0.93624   0.30549   0.23511   0.00000  Uiso   1.00
O156   O     0.86402   0.30215   0.35917   0.00000  Uiso   1.00
O157   O     0.93758  -0.00000   0.06324   0.00000  Uiso   1.00
O158   O     0.86432  -0.00241   0.18851   0.00000  Uiso   1.00
O159   O     0.79451   0.00359   0.30938   0.00000  Uiso   1.00
O160   O     0.97376   0.00951   0.43224   0.00000  Uiso   1.00
O161   O     0.56259   0.55480   0.06324   0.00000  Uiso   1.00
O162   O     0.73932   0.55710   0.18851   0.00000  Uiso   1.00
O163   O     0.66951   0.55104   0.30939   0.00000  Uiso   1.00
O164   O     0.59877   0.54508   0.43223   0.00000  Uiso   1.00
O165   O     0.70487   0.75000   0.00000   0.00000  Uiso   1.00
O166   O     0.63417   0.74392   0.11528   0.00000  Uiso   1.00
O167   O     0.56124   0.74918   0.23511   0.00000  Uiso   1.00
O168   O     0.73902   0.75248   0.35916   0.00000  Uiso   1.00
O169   O     0.57987   0.80480   0.00000   0.00000  Uiso   1.00
O170   O     0.50916   0.81082   0.11527   0.00000  Uiso   1.00
O171   O     0.68624   0.80550   0.23511   0.00000  Uiso   1.00
O172   O     0.61402   0.80215   0.35917   0.00000  Uiso   1.00
O173   O     0.68758   0.50000   0.06324   0.00000  Uiso   1.00
O174   O     0.61432   0.49759   0.18851   0.00000  Uiso   1.00
O175   O     0.54451   0.50359   0.30938   0.00000  Uiso   1.00
O176   O     0.72377   0.50951   0.43224   0.00000  Uiso   1.00
O177   O     0.81258   0.55480   0.06324   0.00000  Uiso   1.00
O178   O     0.98932   0.55710   0.18851   0.00000  Uiso   1.00
O179   O     0.91951   0.55105   0.30939   0.00000  Uiso   1.00
O180   O     0.84877   0.54509   0.43223   0.00000  Uiso   1.00
O181   O     0.95487   0.75000   0.00000   0.00000  Uiso   1.00
O182   O     0.88416   0.74392   0.11527   0.00000  Uiso   1.00
O183   O     0.81124   0.74918   0.23511   0.00000  Uiso   1.00
O184   O     0.98902   0.75248   0.35916   0.00000  Uiso   1.00
O185   O     0.82987   0.80480   0.00000   0.00000  Uiso   1.00
O186   O     0.75916   0.81082   0.11527   0.00000  Uiso   1.00
O187   O     0.93624   0.80549   0.23511   0.00000  Uiso   1.00
O188   O     0.86402   0.80215   0.35917   0.00000  Uiso   1.00
O189   O     0.93758   0.50000   0.06324   0.00000  Uiso   1.00
O190   O     0.86432   0.49759   0.18851   0.00000  Uiso   1.00
O191   O     0.79451   0.50359   0.30938   0.00000  Uiso   1.00
O192   O     0.97376   0.50951   0.43224   0.00000  Uiso   1.00
O193   O     0.79613   0.31907   0.46690   0.00000  Uiso   1.00
O194   O     0.78287   0.38445   0.53084   0.00000  Uiso   1.00
H195   H     0.79180   0.30523   0.57070   0.00000  Uiso   1.00
loop_
_geom_bond_atom_site_label_1
_geom_bond_atom_site_label_2
_geom_bond_distance
_geom_bond_site_symmetry_2
_ccdc_geom_bond_type
Ti1    Ti42    2.960   1_455 S
Ti1    O73     1.911   .     S
Ti1    O74     1.918   .     S
Ti1    O97     1.929   .     S
Ti1    O149    1.929   1_455 S
Ti1    O189    1.911   1_455 S
Ti2    Ti3     3.000   .     S
Ti2    Ti9     2.960   .     S
Ti2    O70     1.948   .     S
Ti2    O75     2.018   .     S
Ti2    O90     2.038   .     S
Ti2    O98     2.015   .     S
Ti2    O109    1.956   .     S
Ti2    O110    1.879   .     S
Ti3    Ti4     2.971   .     S
Ti3    O71     1.936   .     S
Ti3    O75     1.893   .     S
Ti3    O76     1.895   .     S
Ti3    O99     2.000   .     S
Ti3    O110    2.058   .     S
Ti3    O111    2.030   .     S
Ti4    O76     2.108   .     S
Ti4    O100    1.872   .     S
Ti4    O111    1.839   .     S
Ti4    O152    2.047   1_455 S
Ti4    O192    1.826   1_455 S
Ti5    Ti6     2.960   .     S
Ti5    O65     1.911   .     S
Ti5    O69     1.911   .     S
Ti5    O70     1.918   .     S
Ti5    O73     1.929   .     S
Ti5    O77     1.928   .     S
Ti6    Ti47    2.999   1_455 S
Ti6    O65     1.956   .     S
Ti6    O70     2.038   .     S
Ti6    O71     2.018   .     S
Ti6    O74     1.948   .     S
Ti6    O78     2.015   .     S
Ti6    O146    1.879   1_455 S
Ti7    Ti8     2.971   .     S
Ti7    Ti14    2.999   .     S
Ti7    O66     2.058   .     S
Ti7    O67     2.030   .     S
Ti7    O72     1.895   .     S
Ti7    O75     1.936   .     S
Ti7    O87     1.893   .     S
Ti7    O95     2.000   .     S
Ti8    O67     1.838   .     S
Ti8    O68     1.826   .     S
Ti8    O72     2.107   .     S
Ti8    O76     2.047   .     S
Ti8    O80     1.872   .     S
Ti9    O69     1.929   .     S
Ti9    O89     1.911   .     S
Ti9    O90     1.918   .     S
Ti9    O109    1.911   .     S
Ti9    O113    1.928   .     S
Ti10   Ti11    2.999   .     S
Ti10   Ti33    2.960   .     S
Ti10   O86     1.948   .     S
Ti10   O91     2.018   .     S
Ti10   O114    2.015   .     S
Ti10   O125    1.956   .     S
Ti10   O126    1.879   .     S
Ti10   O138    2.038   .     S
Ti11   Ti12    2.972   .     S
Ti11   O87     1.936   .     S
Ti11   O91     1.893   .     S
Ti11   O92     1.895   .     S
Ti11   O115    2.000   .     S
Ti11   O126    2.058   .     S
Ti11   O127    2.030   .     S
Ti12   O72     2.047   .     S
Ti12   O92     2.108   .     S
Ti12   O112    1.826   .     S
Ti12   O116    1.872   .     S
Ti12   O127    1.839   .     S
Ti13   Ti14    2.960   .     S
Ti13   O81     1.911   .     S
Ti13   O85     1.911   .     S
Ti13   O86     1.918   .     S
Ti13   O89     1.929   .     S
Ti13   O93     1.928   .     S
Ti14   O66     1.879   .     S
Ti14   O81     1.956   .     S
Ti14   O86     2.038   .     S
Ti14   O87     2.018   .     S
Ti14   O90     1.948   .     S
Ti14   O94     2.015   .     S
Ti15   Ti16    2.971   .     S
Ti15   Ti38    2.999   .     S
Ti15   O82     2.058   .     S
Ti15   O83     2.030   .     S
Ti15   O88     1.895   .     S
Ti15   O91     1.936   .     S
Ti15   O135    1.893   .     S
Ti15   O143    2.000   .     S
Ti16   O83     1.838   .     S
Ti16   O84     1.826   .     S
Ti16   O88     2.107   .     S
Ti16   O92     2.047   .     S
Ti16   O96     1.872   .     S
Ti17   Ti58    2.960   1_455 S
Ti17   O65     1.929   1_565 S
Ti17   O105    1.911   .     S
Ti17   O106    1.918   .     S
Ti17   O157    1.911   1_465 S
Ti17   O181    1.929   1_455 S
Ti18   Ti19    3.000   .     S
Ti18   Ti25    2.960   .     S
Ti18   O66     2.015   1_565 S
Ti18   O77     1.956   1_565 S
Ti18   O78     1.879   1_565 S
Ti18   O102    1.948   .     S
Ti18   O107    2.018   .     S
Ti18   O122    2.038   .     S
Ti19   Ti20    2.971   .     S
Ti19   O67     2.000   1_565 S
Ti19   O78     2.058   1_565 S
Ti19   O79     2.030   1_565 S
Ti19   O103    1.936   .     S
Ti19   O107    1.893   .     S
Ti19   O108    1.895   .     S
Ti20   O68     1.872   1_565 S
Ti20   O79     1.839   1_565 S
Ti20   O108    2.108   .     S
Ti20   O160    1.826   1_465 S
Ti20   O184    2.047   1_455 S
Ti21   Ti22    2.960   .     S
Ti21   O97     1.911   .     S
Ti21   O101    1.911   .     S
Ti21   O102    1.918   .     S
Ti21   O105    1.929   .     S
Ti21   O109    1.928   .     S
Ti22   Ti63    2.999   1_455 S
Ti22   O97     1.956   .     S
Ti22   O102    2.038   .     S
Ti22   O103    2.018   .     S
Ti22   O106    1.948   .     S
Ti22   O110    2.015   .     S
Ti22   O178    1.879   1_455 S
Ti23   Ti24    2.971   .     S
Ti23   Ti30    2.999   .     S
Ti23   O98     2.058   .     S
Ti23   O99     2.030   .     S
Ti23   O104    1.895   .     S
Ti23   O107    1.936   .     S
Ti23   O119    1.893   .     S
Ti23   O127    2.000   .     S
Ti24   O99     1.838   .     S
Ti24   O100    1.826   .     S
Ti24   O104    2.107   .     S
Ti24   O108    2.047   .     S
Ti24   O112    1.872   .     S
Ti25   O77     1.911   1_565 S
Ti25   O81     1.928   1_565 S
Ti25   O101    1.929   .     S
Ti25   O121    1.911   .     S
Ti25   O122    1.918   .     S
Ti26   Ti27    2.999   .     S
Ti26   Ti49    2.960   .     S
Ti26   O82     2.015   1_565 S
Ti26   O93     1.956   1_565 S
Ti26   O94     1.879   1_565 S
Ti26   O118    1.948   .     S
Ti26   O123    2.018   .     S
Ti26   O170    2.038   .     S
Ti27   Ti28    2.972   .     S
Ti27   O83     2.000   1_565 S
Ti27   O94     2.058   1_565 S
Ti27   O95     2.030   1_565 S
Ti27   O119    1.936   .     S
Ti27   O123    1.893   .     S
Ti27   O124    1.895   .     S
Ti28   O80     1.826   1_565 S
Ti28   O84     1.872   1_565 S
Ti28   O95     1.839   1_565 S
Ti28   O104    2.047   .     S
Ti28   O124    2.108   .     S
Ti29   Ti30    2.960   .     S
Ti29   O113    1.911   .     S
Ti29   O117    1.911   .     S
Ti29   O118    1.918   .     S
Ti29   O121    1.929   .     S
Ti29   O125    1.928   .     S
Ti30   O98     1.879   .     S
Ti30   O113    1.956   .     S
Ti30   O118    2.038   .     S
Ti30   O119    2.018   .     S
Ti30   O122    1.948   .     S
Ti30   O126    2.015   .     S
Ti31   Ti32    2.971   .     S
Ti31   Ti54    2.999   .     S
Ti31   O114    2.058   .     S
Ti31   O115    2.030   .     S
Ti31   O120    1.895   .     S
Ti31   O123    1.936   .     S
Ti31   O167    1.893   .     S
Ti31   O175    2.000   .     S
Ti32   O115    1.838   .     S
Ti32   O116    1.826   .     S
Ti32   O120    2.107   .     S
Ti32   O124    2.047   .     S
Ti32   O128    1.872   .     S
Ti33   O85     1.929   .     S
Ti33   O125    1.911   .     S
Ti33   O137    1.911   .     S
Ti33   O138    1.918   .     S
Ti33   O161    1.929   .     S
Ti34   Ti35    2.999   .     S
Ti34   Ti41    2.960   .     S
Ti34   O134    1.948   .     S
Ti34   O139    2.018   .     S
Ti34   O154    2.038   .     S
Ti34   O162    2.015   .     S
Ti34   O173    1.956   .     S
Ti34   O174    1.879   .     S
Ti35   Ti36    2.972   .     S
Ti35   O135    1.936   .     S
Ti35   O139    1.893   .     S
Ti35   O140    1.895   .     S
Ti35   O163    2.000   .     S
Ti35   O174    2.058   .     S
Ti35   O175    2.030   .     S
Ti36   O88     2.047   .     S
Ti36   O128    1.826   .     S
Ti36   O140    2.108   .     S
Ti36   O164    1.872   .     S
Ti36   O175    1.839   .     S
Ti37   Ti38    2.960   .     S
Ti37   O129    1.911   .     S
Ti37   O133    1.911   .     S
Ti37   O134    1.918   .     S
Ti37   O137    1.929   .     S
Ti37   O141    1.928   .     S
Ti38   O82     1.879   .     S
Ti38   O129    1.956   .     S
Ti38   O134    2.038   .     S
Ti38   O135    2.018   .     S
Ti38   O138    1.948   .     S
Ti38   O142    2.015   .     S
Ti39   Ti40    2.971   .     S
Ti39   Ti46    2.999   .     S
Ti39   O130    2.058   .     S
Ti39   O131    2.030   .     S
Ti39   O136    1.895   .     S
Ti39   O139    1.936   .     S
Ti39   O151    1.893   .     S
Ti39   O159    2.000   .     S
Ti40   O131    1.839   .     S
Ti40   O132    1.826   .     S
Ti40   O136    2.107   .     S
Ti40   O140    2.047   .     S
Ti40   O144    1.872   .     S
Ti41   O133    1.929   .     S
Ti41   O153    1.911   .     S
Ti41   O154    1.918   .     S
Ti41   O173    1.911   .     S
Ti41   O177    1.928   .     S
Ti42   Ti1     2.960   1_655 S
Ti42   Ti43    2.999   .     S
Ti42   O74     2.038   1_655 S
Ti42   O150    1.948   .     S
Ti42   O155    2.018   .     S
Ti42   O178    2.015   .     S
Ti42   O189    1.956   .     S
Ti42   O190    1.879   .     S
Ti43   Ti44    2.972   .     S
Ti43   O151    1.936   .     S
Ti43   O155    1.893   .     S
Ti43   O156    1.895   .     S
Ti43   O179    2.000   .     S
Ti43   O190    2.058   .     S
Ti43   O191    2.030   .     S
Ti44   O136    2.047   .     S
Ti44   O156    2.108   .     S
Ti44   O176    1.826   .     S
Ti44   O180    1.872   .     S
Ti44   O191    1.839   .     S
Ti44   O193    1.846   .     S
Ti45   Ti46    2.960   .     S
Ti45   O145    1.911   .     S
Ti45   O149    1.911   .     S
Ti45   O150    1.918   .     S
Ti45   O153    1.929   .     S
Ti45   O157    1.928   .     S
Ti46   O130    1.879   .     S
Ti46   O145    1.956   .     S
Ti46   O150    2.038   .     S
Ti46   O151    2.018   .     S
Ti46   O154    1.948   .     S
Ti46   O158    2.015   .     S
Ti47   Ti6     2.999   1_655 S
Ti47   Ti48    2.971   .     S
Ti47   O71     1.893   1_655 S
Ti47   O79     2.000   1_655 S
Ti47   O146    2.058   .     S
Ti47   O147    2.030   .     S
Ti47   O152    1.895   .     S
Ti47   O155    1.936   .     S
Ti48   O147    1.838   .     S
Ti48   O148    1.826   .     S
Ti48   O152    2.107   .     S
Ti48   O156    2.047   .     S
Ti48   O160    1.872   .     S
Ti49   O93     1.911   1_565 S
Ti49   O117    1.929   .     S
Ti49   O129    1.929   1_565 S
Ti49   O169    1.911   .     S
Ti49   O170    1.918   .     S
Ti50   Ti51    2.999   .     S
Ti50   Ti57    2.960   .     S
Ti50   O130    2.015   1_565 S
Ti50   O141    1.956   1_565 S
Ti50   O142    1.879   1_565 S
Ti50   O166    1.948   .     S
Ti50   O171    2.018   .     S
Ti50   O186    2.038   .     S
Ti51   Ti52    2.972   .     S
Ti51   O131    2.000   1_565 S
Ti51   O142    2.058   1_565 S
Ti51   O143    2.030   1_565 S
Ti51   O167    1.936   .     S
Ti51   O171    1.893   .     S
Ti51   O172    1.895   .     S
Ti52   O96     1.826   1_565 S
Ti52   O120    2.047   .     S
Ti52   O132    1.872   1_565 S
Ti52   O143    1.839   1_565 S
Ti52   O172    2.108   .     S
Ti53   Ti54    2.960   .     S
Ti53   O161    1.911   .     S
Ti53   O165    1.911   .     S
Ti53   O166    1.918   .     S
Ti53   O169    1.929   .     S
Ti53   O173    1.928   .     S
Ti54   O114    1.879   .     S
Ti54   O161    1.956   .     S
Ti54   O166    2.038   .     S
Ti54   O167    2.018   .     S
Ti54   O170    1.948   .     S
Ti54   O174    2.015   .     S
Ti55   Ti56    2.971   .     S
Ti55   Ti62    2.999   .     S
Ti55   O162    2.058   .     S
Ti55   O163    2.030   .     S
Ti55   O168    1.895   .     S
Ti55   O171    1.936   .     S
Ti55   O183    1.893   .     S
Ti55   O191    2.000   .     S
Ti56   O163    1.839   .     S
Ti56   O164    1.826   .     S
Ti56   O168    2.107   .     S
Ti56   O172    2.047   .     S
Ti56   O176    1.872   .     S
Ti57   O141    1.911   1_565 S
Ti57   O145    1.928   1_565 S
Ti57   O165    1.929   .     S
Ti57   O185    1.911   .     S
Ti57   O186    1.918   .     S
Ti58   Ti17    2.960   1_655 S
Ti58   Ti59    2.999   .     S
Ti58   O106    2.038   1_655 S
Ti58   O146    2.015   1_565 S
Ti58   O157    1.956   1_565 S
Ti58   O158    1.879   1_565 S
Ti58   O182    1.948   .     S
Ti58   O187    2.018   .     S
Ti59   Ti60    2.972   .     S
Ti59   O147    2.000   1_565 S
Ti59   O158    2.058   1_565 S
Ti59   O159    2.030   1_565 S
Ti59   O183    1.936   .     S
Ti59   O187    1.893   .     S
Ti59   O188    1.895   .     S
Ti60   O144    1.826   1_565 S
Ti60   O148    1.872   1_565 S
Ti60   O159    1.839   1_565 S
Ti60   O168    2.047   .     S
Ti60   O188    2.108   .     S
Ti61   Ti62    2.960   .     S
Ti61   O177    1.911   .     S
Ti61   O181    1.911   .     S
Ti61   O182    1.918   .     S
Ti61   O185    1.929   .     S
Ti61   O189    1.928   .     S
Ti62   O162    1.879   .     S
Ti62   O177    1.956   .     S
Ti62   O182    2.038   .     S
Ti62   O183    2.018   .     S
Ti62   O186    1.948   .     S
Ti62   O190    2.015   .     S
Ti63   Ti22    2.999   1_655 S
Ti63   Ti64    2.971   .     S
Ti63   O103    1.893   1_655 S
Ti63   O111    2.000   1_655 S
Ti63   O178    2.058   .     S
Ti63   O179    2.030   .     S
Ti63   O184    1.895   .     S
Ti63   O187    1.936   .     S
Ti64   O179    1.838   .     S
Ti64   O180    1.826   .     S
Ti64   O184    2.107   .     S
Ti64   O188    2.047   .     S
Ti64   O192    1.872   .     S
O65    Ti17    1.929   1_545 S
O66    Ti18    2.015   1_545 S
O67    Ti19    2.000   1_545 S
O68    Ti20    1.872   1_545 S
O71    Ti47    1.893   1_455 S
O74    Ti42    2.038   1_455 S
O77    Ti25    1.911   1_545 S
O77    Ti18    1.956   1_545 S
O78    Ti19    2.058   1_545 S
O78    Ti18    1.879   1_545 S
O79    Ti20    1.839   1_545 S
O79    Ti47    2.000   1_455 S
O79    Ti19    2.030   1_545 S
O80    Ti28    1.826   1_545 S
O81    Ti25    1.928   1_545 S
O82    Ti26    2.015   1_545 S
O83    Ti27    2.000   1_545 S
O84    Ti28    1.872   1_545 S
O93    Ti26    1.956   1_545 S
O93    Ti49    1.911   1_545 S
O94    Ti27    2.058   1_545 S
O94    Ti26    1.879   1_545 S
O95    Ti28    1.839   1_545 S
O95    Ti27    2.030   1_545 S
O96    Ti52    1.826   1_545 S
O103   Ti63    1.893   1_455 S
O106   Ti58    2.038   1_455 S
O111   Ti63    2.000   1_455 S
O129   Ti49    1.929   1_545 S
O130   Ti50    2.015   1_545 S
O131   Ti51    2.000   1_545 S
O132   Ti52    1.872   1_545 S
O141   Ti50    1.956   1_545 S
O141   Ti57    1.911   1_545 S
O142   Ti51    2.058   1_545 S
O142   Ti50    1.879   1_545 S
O143   Ti52    1.839   1_545 S
O143   Ti51    2.030   1_545 S
O144   Ti60    1.826   1_545 S
O145   Ti57    1.928   1_545 S
O146   Ti6     1.879   1_655 S
O146   Ti58    2.015   1_545 S
O147   Ti59    2.000   1_545 S
O148   Ti60    1.872   1_545 S
O149   Ti1     1.929   1_655 S
O152   Ti4     2.047   1_655 S
O157   Ti58    1.956   1_545 S
O157   Ti17    1.911   1_645 S
O158   Ti59    2.058   1_545 S
O158   Ti58    1.879   1_545 S
O159   Ti60    1.839   1_545 S
O159   Ti59    2.030   1_545 S
O160   Ti20    1.826   1_645 S
O178   Ti22    1.879   1_655 S
O181   Ti17    1.929   1_655 S
O184   Ti20    2.047   1_655 S
O189   Ti1     1.911   1_655 S
O192   Ti4     1.826   1_655 S
O193   O194    1.480   .     S
O194   H195    1.110   .     S
